<routes>
        <vType id="typeWE" accel="0.8" decel="4.5" sigma="0.5" length="5" minGap="2.5" maxSpeed="16.67" guiShape="passenger"/>
        <vType id="typeNS" accel="0.8" decel="4.5" sigma="0.5" length="7" minGap="3" maxSpeed="25" guiShape="bus"/>

        <route id="right" edges="51o 1i 2o 52i" />
        <route id="left" edges="52o 2i 1o 51i" />
        <route id="down" edges="54o 4i 3o 53i" />
    <vehicle id="right_0" type="typeWE" route="right" depart="2" />
    <vehicle id="left_1" type="typeWE" route="left" depart="20" />
    <vehicle id="left_2" type="typeWE" route="left" depart="39" />
    <vehicle id="down_3" type="typeNS" route="down" depart="43" color="1,0,0"/>
    <vehicle id="left_4" type="typeWE" route="left" depart="46" />
    <vehicle id="right_5" type="typeWE" route="right" depart="51" />
    <vehicle id="right_6" type="typeWE" route="right" depart="53" />
    <vehicle id="left_7" type="typeWE" route="left" depart="54" />
    <vehicle id="right_8" type="typeWE" route="right" depart="59" />
    <vehicle id="right_9" type="typeWE" route="right" depart="61" />
    <vehicle id="left_10" type="typeWE" route="left" depart="70" />
    <vehicle id="right_11" type="typeWE" route="right" depart="73" />
    <vehicle id="down_12" type="typeNS" route="down" depart="75" color="1,0,0"/>
    <vehicle id="down_13" type="typeNS" route="down" depart="76" color="1,0,0"/>
    <vehicle id="right_14" type="typeWE" route="right" depart="79" />
    <vehicle id="left_15" type="typeWE" route="left" depart="81" />
    <vehicle id="down_16" type="typeNS" route="down" depart="81" color="1,0,0"/>
    <vehicle id="left_17" type="typeWE" route="left" depart="82" />
    <vehicle id="left_18" type="typeWE" route="left" depart="87" />
    <vehicle id="right_19" type="typeWE" route="right" depart="88" />
    <vehicle id="left_20" type="typeWE" route="left" depart="99" />
    <vehicle id="right_21" type="typeWE" route="right" depart="101" />
    <vehicle id="left_22" type="typeWE" route="left" depart="101" />
    <vehicle id="left_23" type="typeWE" route="left" depart="109" />
    <vehicle id="right_24" type="typeWE" route="right" depart="110" />
    <vehicle id="left_25" type="typeWE" route="left" depart="112" />
    <vehicle id="left_26" type="typeWE" route="left" depart="116" />
    <vehicle id="left_27" type="typeWE" route="left" depart="117" />
    <vehicle id="right_28" type="typeWE" route="right" depart="122" />
    <vehicle id="right_29" type="typeWE" route="right" depart="143" />
    <vehicle id="right_30" type="typeWE" route="right" depart="144" />
    <vehicle id="left_31" type="typeWE" route="left" depart="145" />
    <vehicle id="right_32" type="typeWE" route="right" depart="146" />
    <vehicle id="right_33" type="typeWE" route="right" depart="148" />
    <vehicle id="right_34" type="typeWE" route="right" depart="149" />
    <vehicle id="right_35" type="typeWE" route="right" depart="165" />
    <vehicle id="left_36" type="typeWE" route="left" depart="180" />
    <vehicle id="left_37" type="typeWE" route="left" depart="187" />
    <vehicle id="right_38" type="typeWE" route="right" depart="188" />
    <vehicle id="right_39" type="typeWE" route="right" depart="193" />
    <vehicle id="right_40" type="typeWE" route="right" depart="198" />
    <vehicle id="right_41" type="typeWE" route="right" depart="200" />
    <vehicle id="down_42" type="typeNS" route="down" depart="213" color="1,0,0"/>
    <vehicle id="left_43" type="typeWE" route="left" depart="216" />
    <vehicle id="right_44" type="typeWE" route="right" depart="233" />
    <vehicle id="left_45" type="typeWE" route="left" depart="240" />
    <vehicle id="left_46" type="typeWE" route="left" depart="244" />
    <vehicle id="left_47" type="typeWE" route="left" depart="245" />
    <vehicle id="right_48" type="typeWE" route="right" depart="248" />
    <vehicle id="left_49" type="typeWE" route="left" depart="252" />
    <vehicle id="down_50" type="typeNS" route="down" depart="253" color="1,0,0"/>
    <vehicle id="left_51" type="typeWE" route="left" depart="254" />
    <vehicle id="right_52" type="typeWE" route="right" depart="255" />
    <vehicle id="right_53" type="typeWE" route="right" depart="259" />
    <vehicle id="right_54" type="typeWE" route="right" depart="262" />
    <vehicle id="left_55" type="typeWE" route="left" depart="264" />
    <vehicle id="left_56" type="typeWE" route="left" depart="273" />
    <vehicle id="left_57" type="typeWE" route="left" depart="278" />
    <vehicle id="left_58" type="typeWE" route="left" depart="286" />
    <vehicle id="left_59" type="typeWE" route="left" depart="301" />
    <vehicle id="down_60" type="typeNS" route="down" depart="310" color="1,0,0"/>
    <vehicle id="left_61" type="typeWE" route="left" depart="314" />
    <vehicle id="right_62" type="typeWE" route="right" depart="316" />
    <vehicle id="right_63" type="typeWE" route="right" depart="317" />
    <vehicle id="left_64" type="typeWE" route="left" depart="318" />
    <vehicle id="down_65" type="typeNS" route="down" depart="319" color="1,0,0"/>
    <vehicle id="right_66" type="typeWE" route="right" depart="327" />
    <vehicle id="down_67" type="typeNS" route="down" depart="330" color="1,0,0"/>
    <vehicle id="left_68" type="typeWE" route="left" depart="347" />
    <vehicle id="right_69" type="typeWE" route="right" depart="352" />
    <vehicle id="left_70" type="typeWE" route="left" depart="363" />
    <vehicle id="left_71" type="typeWE" route="left" depart="370" />
    <vehicle id="left_72" type="typeWE" route="left" depart="373" />
    <vehicle id="right_73" type="typeWE" route="right" depart="377" />
    <vehicle id="right_74" type="typeWE" route="right" depart="384" />
    <vehicle id="left_75" type="typeWE" route="left" depart="384" />
    <vehicle id="right_76" type="typeWE" route="right" depart="390" />
    <vehicle id="down_77" type="typeNS" route="down" depart="390" color="1,0,0"/>
    <vehicle id="left_78" type="typeWE" route="left" depart="391" />
    <vehicle id="right_79" type="typeWE" route="right" depart="402" />
    <vehicle id="left_80" type="typeWE" route="left" depart="403" />
    <vehicle id="down_81" type="typeNS" route="down" depart="408" color="1,0,0"/>
    <vehicle id="left_82" type="typeWE" route="left" depart="409" />
    <vehicle id="right_83" type="typeWE" route="right" depart="413" />
    <vehicle id="right_84" type="typeWE" route="right" depart="419" />
    <vehicle id="right_85" type="typeWE" route="right" depart="436" />
    <vehicle id="left_86" type="typeWE" route="left" depart="438" />
    <vehicle id="down_87" type="typeNS" route="down" depart="440" color="1,0,0"/>
    <vehicle id="right_88" type="typeWE" route="right" depart="445" />
    <vehicle id="left_89" type="typeWE" route="left" depart="445" />
    <vehicle id="right_90" type="typeWE" route="right" depart="449" />
    <vehicle id="right_91" type="typeWE" route="right" depart="451" />
    <vehicle id="right_92" type="typeWE" route="right" depart="462" />
    <vehicle id="right_93" type="typeWE" route="right" depart="463" />
    <vehicle id="left_94" type="typeWE" route="left" depart="463" />
    <vehicle id="left_95" type="typeWE" route="left" depart="471" />
    <vehicle id="left_96" type="typeWE" route="left" depart="472" />
    <vehicle id="right_97" type="typeWE" route="right" depart="473" />
    <vehicle id="down_98" type="typeNS" route="down" depart="475" color="1,0,0"/>
    <vehicle id="left_99" type="typeWE" route="left" depart="481" />
    <vehicle id="right_100" type="typeWE" route="right" depart="487" />
    <vehicle id="left_101" type="typeWE" route="left" depart="496" />
    <vehicle id="left_102" type="typeWE" route="left" depart="508" />
    <vehicle id="right_103" type="typeWE" route="right" depart="513" />
    <vehicle id="left_104" type="typeWE" route="left" depart="513" />
    <vehicle id="right_105" type="typeWE" route="right" depart="520" />
    <vehicle id="right_106" type="typeWE" route="right" depart="521" />
    <vehicle id="down_107" type="typeNS" route="down" depart="524" color="1,0,0"/>
    <vehicle id="down_108" type="typeNS" route="down" depart="526" color="1,0,0"/>
    <vehicle id="right_109" type="typeWE" route="right" depart="529" />
    <vehicle id="right_110" type="typeWE" route="right" depart="531" />
    <vehicle id="right_111" type="typeWE" route="right" depart="540" />
    <vehicle id="right_112" type="typeWE" route="right" depart="544" />
    <vehicle id="left_113" type="typeWE" route="left" depart="572" />
    <vehicle id="left_114" type="typeWE" route="left" depart="573" />
    <vehicle id="left_115" type="typeWE" route="left" depart="574" />
    <vehicle id="right_116" type="typeWE" route="right" depart="579" />
    <vehicle id="left_117" type="typeWE" route="left" depart="581" />
    <vehicle id="down_118" type="typeNS" route="down" depart="612" color="1,0,0"/>
    <vehicle id="right_119" type="typeWE" route="right" depart="613" />
    <vehicle id="down_120" type="typeNS" route="down" depart="614" color="1,0,0"/>
    <vehicle id="left_121" type="typeWE" route="left" depart="619" />
    <vehicle id="left_122" type="typeWE" route="left" depart="625" />
    <vehicle id="left_123" type="typeWE" route="left" depart="626" />
    <vehicle id="right_124" type="typeWE" route="right" depart="627" />
    <vehicle id="right_125" type="typeWE" route="right" depart="629" />
    <vehicle id="left_126" type="typeWE" route="left" depart="632" />
    <vehicle id="right_127" type="typeWE" route="right" depart="649" />
    <vehicle id="down_128" type="typeNS" route="down" depart="652" color="1,0,0"/>
    <vehicle id="right_129" type="typeWE" route="right" depart="653" />
    <vehicle id="right_130" type="typeWE" route="right" depart="654" />
    <vehicle id="left_131" type="typeWE" route="left" depart="656" />
    <vehicle id="right_132" type="typeWE" route="right" depart="663" />
    <vehicle id="left_133" type="typeWE" route="left" depart="663" />
    <vehicle id="left_134" type="typeWE" route="left" depart="674" />
    <vehicle id="right_135" type="typeWE" route="right" depart="685" />
    <vehicle id="left_136" type="typeWE" route="left" depart="689" />
    <vehicle id="right_137" type="typeWE" route="right" depart="706" />
    <vehicle id="down_138" type="typeNS" route="down" depart="718" color="1,0,0"/>
    <vehicle id="down_139" type="typeNS" route="down" depart="722" color="1,0,0"/>
    <vehicle id="left_140" type="typeWE" route="left" depart="724" />
    <vehicle id="right_141" type="typeWE" route="right" depart="725" />
    <vehicle id="left_142" type="typeWE" route="left" depart="730" />
    <vehicle id="left_143" type="typeWE" route="left" depart="732" />
    <vehicle id="left_144" type="typeWE" route="left" depart="733" />
    <vehicle id="right_145" type="typeWE" route="right" depart="737" />
    <vehicle id="right_146" type="typeWE" route="right" depart="740" />
    <vehicle id="left_147" type="typeWE" route="left" depart="740" />
    <vehicle id="left_148" type="typeWE" route="left" depart="743" />
    <vehicle id="right_149" type="typeWE" route="right" depart="746" />
    <vehicle id="right_150" type="typeWE" route="right" depart="755" />
    <vehicle id="right_151" type="typeWE" route="right" depart="765" />
    <vehicle id="right_152" type="typeWE" route="right" depart="772" />
    <vehicle id="left_153" type="typeWE" route="left" depart="777" />
    <vehicle id="left_154" type="typeWE" route="left" depart="778" />
    <vehicle id="left_155" type="typeWE" route="left" depart="785" />
    <vehicle id="right_156" type="typeWE" route="right" depart="789" />
    <vehicle id="right_157" type="typeWE" route="right" depart="790" />
    <vehicle id="left_158" type="typeWE" route="left" depart="800" />
    <vehicle id="right_159" type="typeWE" route="right" depart="806" />
    <vehicle id="left_160" type="typeWE" route="left" depart="818" />
    <vehicle id="right_161" type="typeWE" route="right" depart="821" />
    <vehicle id="down_162" type="typeNS" route="down" depart="822" color="1,0,0"/>
    <vehicle id="left_163" type="typeWE" route="left" depart="825" />
    <vehicle id="down_164" type="typeNS" route="down" depart="830" color="1,0,0"/>
    <vehicle id="right_165" type="typeWE" route="right" depart="834" />
    <vehicle id="right_166" type="typeWE" route="right" depart="840" />
    <vehicle id="left_167" type="typeWE" route="left" depart="840" />
    <vehicle id="right_168" type="typeWE" route="right" depart="843" />
    <vehicle id="down_169" type="typeNS" route="down" depart="845" color="1,0,0"/>
    <vehicle id="down_170" type="typeNS" route="down" depart="847" color="1,0,0"/>
    <vehicle id="left_171" type="typeWE" route="left" depart="854" />
    <vehicle id="right_172" type="typeWE" route="right" depart="879" />
    <vehicle id="down_173" type="typeNS" route="down" depart="882" color="1,0,0"/>
    <vehicle id="left_174" type="typeWE" route="left" depart="885" />
    <vehicle id="left_175" type="typeWE" route="left" depart="891" />
    <vehicle id="left_176" type="typeWE" route="left" depart="895" />
    <vehicle id="left_177" type="typeWE" route="left" depart="896" />
    <vehicle id="right_178" type="typeWE" route="right" depart="899" />
    <vehicle id="right_179" type="typeWE" route="right" depart="900" />
    <vehicle id="down_180" type="typeNS" route="down" depart="926" color="1,0,0"/>
    <vehicle id="down_181" type="typeNS" route="down" depart="927" color="1,0,0"/>
    <vehicle id="right_182" type="typeWE" route="right" depart="929" />
    <vehicle id="left_183" type="typeWE" route="left" depart="935" />
    <vehicle id="right_184" type="typeWE" route="right" depart="938" />
    <vehicle id="down_185" type="typeNS" route="down" depart="957" color="1,0,0"/>
    <vehicle id="left_186" type="typeWE" route="left" depart="960" />
    <vehicle id="right_187" type="typeWE" route="right" depart="961" />
    <vehicle id="right_188" type="typeWE" route="right" depart="970" />
    <vehicle id="left_189" type="typeWE" route="left" depart="971" />
    <vehicle id="left_190" type="typeWE" route="left" depart="973" />
    <vehicle id="left_191" type="typeWE" route="left" depart="983" />
    <vehicle id="left_192" type="typeWE" route="left" depart="984" />
    <vehicle id="left_193" type="typeWE" route="left" depart="985" />
    <vehicle id="down_194" type="typeNS" route="down" depart="985" color="1,0,0"/>
    <vehicle id="left_195" type="typeWE" route="left" depart="993" />
    <vehicle id="left_196" type="typeWE" route="left" depart="1002" />
    <vehicle id="right_197" type="typeWE" route="right" depart="1010" />
    <vehicle id="left_198" type="typeWE" route="left" depart="1012" />
    <vehicle id="down_199" type="typeNS" route="down" depart="1018" color="1,0,0"/>
    <vehicle id="left_200" type="typeWE" route="left" depart="1021" />
    <vehicle id="left_201" type="typeWE" route="left" depart="1027" />
    <vehicle id="right_202" type="typeWE" route="right" depart="1029" />
    <vehicle id="right_203" type="typeWE" route="right" depart="1046" />
    <vehicle id="right_204" type="typeWE" route="right" depart="1050" />
    <vehicle id="right_205" type="typeWE" route="right" depart="1051" />
    <vehicle id="left_206" type="typeWE" route="left" depart="1051" />
    <vehicle id="right_207" type="typeWE" route="right" depart="1054" />
    <vehicle id="left_208" type="typeWE" route="left" depart="1061" />
    <vehicle id="left_209" type="typeWE" route="left" depart="1064" />
    <vehicle id="left_210" type="typeWE" route="left" depart="1065" />
    <vehicle id="down_211" type="typeNS" route="down" depart="1065" color="1,0,0"/>
    <vehicle id="right_212" type="typeWE" route="right" depart="1066" />
    <vehicle id="left_213" type="typeWE" route="left" depart="1067" />
    <vehicle id="right_214" type="typeWE" route="right" depart="1069" />
    <vehicle id="left_215" type="typeWE" route="left" depart="1071" />
    <vehicle id="left_216" type="typeWE" route="left" depart="1073" />
    <vehicle id="right_217" type="typeWE" route="right" depart="1074" />
    <vehicle id="right_218" type="typeWE" route="right" depart="1075" />
    <vehicle id="left_219" type="typeWE" route="left" depart="1078" />
    <vehicle id="down_220" type="typeNS" route="down" depart="1078" color="1,0,0"/>
    <vehicle id="left_221" type="typeWE" route="left" depart="1083" />
    <vehicle id="down_222" type="typeNS" route="down" depart="1084" color="1,0,0"/>
    <vehicle id="left_223" type="typeWE" route="left" depart="1095" />
    <vehicle id="left_224" type="typeWE" route="left" depart="1103" />
    <vehicle id="left_225" type="typeWE" route="left" depart="1105" />
    <vehicle id="right_226" type="typeWE" route="right" depart="1107" />
    <vehicle id="left_227" type="typeWE" route="left" depart="1107" />
    <vehicle id="right_228" type="typeWE" route="right" depart="1108" />
    <vehicle id="left_229" type="typeWE" route="left" depart="1108" />
    <vehicle id="left_230" type="typeWE" route="left" depart="1110" />
    <vehicle id="right_231" type="typeWE" route="right" depart="1114" />
    <vehicle id="right_232" type="typeWE" route="right" depart="1118" />
    <vehicle id="left_233" type="typeWE" route="left" depart="1118" />
    <vehicle id="down_234" type="typeNS" route="down" depart="1122" color="1,0,0"/>
    <vehicle id="right_235" type="typeWE" route="right" depart="1127" />
    <vehicle id="left_236" type="typeWE" route="left" depart="1128" />
    <vehicle id="left_237" type="typeWE" route="left" depart="1132" />
    <vehicle id="right_238" type="typeWE" route="right" depart="1137" />
    <vehicle id="left_239" type="typeWE" route="left" depart="1138" />
    <vehicle id="left_240" type="typeWE" route="left" depart="1140" />
    <vehicle id="down_241" type="typeNS" route="down" depart="1145" color="1,0,0"/>
    <vehicle id="right_242" type="typeWE" route="right" depart="1146" />
    <vehicle id="right_243" type="typeWE" route="right" depart="1149" />
    <vehicle id="right_244" type="typeWE" route="right" depart="1150" />
    <vehicle id="left_245" type="typeWE" route="left" depart="1154" />
    <vehicle id="right_246" type="typeWE" route="right" depart="1161" />
    <vehicle id="left_247" type="typeWE" route="left" depart="1171" />
    <vehicle id="left_248" type="typeWE" route="left" depart="1183" />
    <vehicle id="left_249" type="typeWE" route="left" depart="1184" />
    <vehicle id="right_250" type="typeWE" route="right" depart="1189" />
    <vehicle id="left_251" type="typeWE" route="left" depart="1204" />
    <vehicle id="left_252" type="typeWE" route="left" depart="1208" />
    <vehicle id="right_253" type="typeWE" route="right" depart="1213" />
    <vehicle id="left_254" type="typeWE" route="left" depart="1214" />
    <vehicle id="left_255" type="typeWE" route="left" depart="1215" />
    <vehicle id="left_256" type="typeWE" route="left" depart="1218" />
    <vehicle id="left_257" type="typeWE" route="left" depart="1225" />
    <vehicle id="right_258" type="typeWE" route="right" depart="1230" />
    <vehicle id="right_259" type="typeWE" route="right" depart="1243" />
    <vehicle id="right_260" type="typeWE" route="right" depart="1244" />
    <vehicle id="left_261" type="typeWE" route="left" depart="1247" />
    <vehicle id="left_262" type="typeWE" route="left" depart="1248" />
    <vehicle id="left_263" type="typeWE" route="left" depart="1249" />
    <vehicle id="down_264" type="typeNS" route="down" depart="1270" color="1,0,0"/>
    <vehicle id="right_265" type="typeWE" route="right" depart="1276" />
    <vehicle id="left_266" type="typeWE" route="left" depart="1281" />
    <vehicle id="left_267" type="typeWE" route="left" depart="1294" />
    <vehicle id="left_268" type="typeWE" route="left" depart="1302" />
    <vehicle id="left_269" type="typeWE" route="left" depart="1316" />
    <vehicle id="left_270" type="typeWE" route="left" depart="1320" />
    <vehicle id="left_271" type="typeWE" route="left" depart="1331" />
    <vehicle id="left_272" type="typeWE" route="left" depart="1332" />
    <vehicle id="left_273" type="typeWE" route="left" depart="1334" />
    <vehicle id="right_274" type="typeWE" route="right" depart="1337" />
    <vehicle id="left_275" type="typeWE" route="left" depart="1338" />
    <vehicle id="right_276" type="typeWE" route="right" depart="1341" />
    <vehicle id="left_277" type="typeWE" route="left" depart="1343" />
    <vehicle id="left_278" type="typeWE" route="left" depart="1344" />
    <vehicle id="right_279" type="typeWE" route="right" depart="1347" />
    <vehicle id="left_280" type="typeWE" route="left" depart="1347" />
    <vehicle id="left_281" type="typeWE" route="left" depart="1349" />
    <vehicle id="left_282" type="typeWE" route="left" depart="1360" />
    <vehicle id="right_283" type="typeWE" route="right" depart="1361" />
    <vehicle id="left_284" type="typeWE" route="left" depart="1363" />
    <vehicle id="left_285" type="typeWE" route="left" depart="1366" />
    <vehicle id="right_286" type="typeWE" route="right" depart="1368" />
    <vehicle id="left_287" type="typeWE" route="left" depart="1386" />
    <vehicle id="right_288" type="typeWE" route="right" depart="1388" />
    <vehicle id="right_289" type="typeWE" route="right" depart="1390" />
    <vehicle id="left_290" type="typeWE" route="left" depart="1390" />
    <vehicle id="left_291" type="typeWE" route="left" depart="1394" />
    <vehicle id="down_292" type="typeNS" route="down" depart="1402" color="1,0,0"/>
    <vehicle id="right_293" type="typeWE" route="right" depart="1403" />
    <vehicle id="left_294" type="typeWE" route="left" depart="1423" />
    <vehicle id="down_295" type="typeNS" route="down" depart="1423" color="1,0,0"/>
    <vehicle id="left_296" type="typeWE" route="left" depart="1445" />
    <vehicle id="down_297" type="typeNS" route="down" depart="1446" color="1,0,0"/>
    <vehicle id="down_298" type="typeNS" route="down" depart="1453" color="1,0,0"/>
    <vehicle id="right_299" type="typeWE" route="right" depart="1454" />
    <vehicle id="left_300" type="typeWE" route="left" depart="1455" />
    <vehicle id="down_301" type="typeNS" route="down" depart="1458" color="1,0,0"/>
    <vehicle id="left_302" type="typeWE" route="left" depart="1461" />
    <vehicle id="right_303" type="typeWE" route="right" depart="1468" />
    <vehicle id="left_304" type="typeWE" route="left" depart="1468" />
    <vehicle id="down_305" type="typeNS" route="down" depart="1472" color="1,0,0"/>
    <vehicle id="right_306" type="typeWE" route="right" depart="1480" />
    <vehicle id="right_307" type="typeWE" route="right" depart="1488" />
    <vehicle id="down_308" type="typeNS" route="down" depart="1489" color="1,0,0"/>
    <vehicle id="down_309" type="typeNS" route="down" depart="1490" color="1,0,0"/>
    <vehicle id="right_310" type="typeWE" route="right" depart="1495" />
    <vehicle id="right_311" type="typeWE" route="right" depart="1498" />
    <vehicle id="right_312" type="typeWE" route="right" depart="1501" />
    <vehicle id="right_313" type="typeWE" route="right" depart="1517" />
    <vehicle id="left_314" type="typeWE" route="left" depart="1519" />
    <vehicle id="right_315" type="typeWE" route="right" depart="1529" />
    <vehicle id="left_316" type="typeWE" route="left" depart="1532" />
    <vehicle id="right_317" type="typeWE" route="right" depart="1534" />
    <vehicle id="right_318" type="typeWE" route="right" depart="1539" />
    <vehicle id="right_319" type="typeWE" route="right" depart="1541" />
    <vehicle id="right_320" type="typeWE" route="right" depart="1544" />
    <vehicle id="down_321" type="typeNS" route="down" depart="1548" color="1,0,0"/>
    <vehicle id="left_322" type="typeWE" route="left" depart="1550" />
    <vehicle id="down_323" type="typeNS" route="down" depart="1558" color="1,0,0"/>
    <vehicle id="left_324" type="typeWE" route="left" depart="1567" />
    <vehicle id="right_325" type="typeWE" route="right" depart="1576" />
    <vehicle id="down_326" type="typeNS" route="down" depart="1577" color="1,0,0"/>
    <vehicle id="right_327" type="typeWE" route="right" depart="1596" />
    <vehicle id="right_328" type="typeWE" route="right" depart="1601" />
    <vehicle id="right_329" type="typeWE" route="right" depart="1610" />
    <vehicle id="right_330" type="typeWE" route="right" depart="1614" />
    <vehicle id="right_331" type="typeWE" route="right" depart="1629" />
    <vehicle id="right_332" type="typeWE" route="right" depart="1631" />
    <vehicle id="left_333" type="typeWE" route="left" depart="1632" />
    <vehicle id="left_334" type="typeWE" route="left" depart="1633" />
    <vehicle id="right_335" type="typeWE" route="right" depart="1635" />
    <vehicle id="left_336" type="typeWE" route="left" depart="1635" />
    <vehicle id="left_337" type="typeWE" route="left" depart="1636" />
    <vehicle id="right_338" type="typeWE" route="right" depart="1638" />
    <vehicle id="right_339" type="typeWE" route="right" depart="1645" />
    <vehicle id="right_340" type="typeWE" route="right" depart="1650" />
    <vehicle id="left_341" type="typeWE" route="left" depart="1653" />
    <vehicle id="left_342" type="typeWE" route="left" depart="1660" />
    <vehicle id="left_343" type="typeWE" route="left" depart="1669" />
    <vehicle id="right_344" type="typeWE" route="right" depart="1673" />
    <vehicle id="left_345" type="typeWE" route="left" depart="1674" />
    <vehicle id="down_346" type="typeNS" route="down" depart="1679" color="1,0,0"/>
    <vehicle id="right_347" type="typeWE" route="right" depart="1687" />
    <vehicle id="left_348" type="typeWE" route="left" depart="1691" />
    <vehicle id="right_349" type="typeWE" route="right" depart="1696" />
    <vehicle id="left_350" type="typeWE" route="left" depart="1696" />
    <vehicle id="down_351" type="typeNS" route="down" depart="1696" color="1,0,0"/>
    <vehicle id="left_352" type="typeWE" route="left" depart="1702" />
    <vehicle id="left_353" type="typeWE" route="left" depart="1709" />
    <vehicle id="left_354" type="typeWE" route="left" depart="1719" />
    <vehicle id="right_355" type="typeWE" route="right" depart="1733" />
    <vehicle id="left_356" type="typeWE" route="left" depart="1733" />
    <vehicle id="left_357" type="typeWE" route="left" depart="1743" />
    <vehicle id="right_358" type="typeWE" route="right" depart="1746" />
    <vehicle id="right_359" type="typeWE" route="right" depart="1764" />
    <vehicle id="right_360" type="typeWE" route="right" depart="1778" />
    <vehicle id="down_361" type="typeNS" route="down" depart="1780" color="1,0,0"/>
    <vehicle id="right_362" type="typeWE" route="right" depart="1783" />
    <vehicle id="right_363" type="typeWE" route="right" depart="1793" />
    <vehicle id="left_364" type="typeWE" route="left" depart="1793" />
    <vehicle id="left_365" type="typeWE" route="left" depart="1795" />
    <vehicle id="right_366" type="typeWE" route="right" depart="1797" />
    <vehicle id="down_367" type="typeNS" route="down" depart="1798" color="1,0,0"/>
    <vehicle id="down_368" type="typeNS" route="down" depart="1803" color="1,0,0"/>
    <vehicle id="left_369" type="typeWE" route="left" depart="1810" />
    <vehicle id="right_370" type="typeWE" route="right" depart="1811" />
    <vehicle id="right_371" type="typeWE" route="right" depart="1817" />
    <vehicle id="left_372" type="typeWE" route="left" depart="1824" />
    <vehicle id="right_373" type="typeWE" route="right" depart="1827" />
    <vehicle id="right_374" type="typeWE" route="right" depart="1829" />
    <vehicle id="right_375" type="typeWE" route="right" depart="1831" />
    <vehicle id="right_376" type="typeWE" route="right" depart="1832" />
    <vehicle id="right_377" type="typeWE" route="right" depart="1833" />
    <vehicle id="left_378" type="typeWE" route="left" depart="1834" />
    <vehicle id="down_379" type="typeNS" route="down" depart="1835" color="1,0,0"/>
    <vehicle id="left_380" type="typeWE" route="left" depart="1847" />
    <vehicle id="left_381" type="typeWE" route="left" depart="1848" />
    <vehicle id="right_382" type="typeWE" route="right" depart="1864" />
    <vehicle id="right_383" type="typeWE" route="right" depart="1866" />
    <vehicle id="left_384" type="typeWE" route="left" depart="1867" />
    <vehicle id="left_385" type="typeWE" route="left" depart="1879" />
    <vehicle id="left_386" type="typeWE" route="left" depart="1881" />
    <vehicle id="left_387" type="typeWE" route="left" depart="1888" />
    <vehicle id="right_388" type="typeWE" route="right" depart="1898" />
    <vehicle id="left_389" type="typeWE" route="left" depart="1901" />
    <vehicle id="right_390" type="typeWE" route="right" depart="1902" />
    <vehicle id="down_391" type="typeNS" route="down" depart="1905" color="1,0,0"/>
    <vehicle id="right_392" type="typeWE" route="right" depart="1906" />
    <vehicle id="right_393" type="typeWE" route="right" depart="1907" />
    <vehicle id="right_394" type="typeWE" route="right" depart="1911" />
    <vehicle id="left_395" type="typeWE" route="left" depart="1911" />
    <vehicle id="down_396" type="typeNS" route="down" depart="1912" color="1,0,0"/>
    <vehicle id="right_397" type="typeWE" route="right" depart="1926" />
    <vehicle id="left_398" type="typeWE" route="left" depart="1929" />
    <vehicle id="right_399" type="typeWE" route="right" depart="1944" />
    <vehicle id="left_400" type="typeWE" route="left" depart="1946" />
    <vehicle id="right_401" type="typeWE" route="right" depart="1950" />
    <vehicle id="left_402" type="typeWE" route="left" depart="1955" />
    <vehicle id="right_403" type="typeWE" route="right" depart="1957" />
    <vehicle id="down_404" type="typeNS" route="down" depart="1957" color="1,0,0"/>
    <vehicle id="right_405" type="typeWE" route="right" depart="1958" />