<?xml version='1.0' encoding='UTF-8'?>
<routes xmlns:xsi="http://www.w3.org/2001/XMLSchema-instance" xsi:noNamespaceSchemaLocation="http://sumo.dlr.de/xsd/routes_file.xsd">
	<vehicle id="0" depart="6" departLane="best" departSpeed="max" color="red">
 		<route edges="4_0 1_1"/>
	</vehicle>
	<vehicle id="1" depart="12" departLane="best" departSpeed="max" color="red">
 		<route edges="4_0 1_1"/>
	</vehicle>
	<vehicle id="2" depart="13" departLane="best" departSpeed="max" color="red">
 		<route edges="4_0 1_1"/>
	</vehicle>
	<vehicle id="3" depart="17" departLane="best" departSpeed="max" color="red">
 		<route edges="4_0 1_1"/>
	</vehicle>
	<vehicle id="4" depart="21" departLane="best" departSpeed="max" color="red">
 		<route edges="4_0 2_1"/>
	</vehicle>
	<vehicle id="5" depart="28" departLane="best" departSpeed="max" color="red">
 		<route edges="4_0 2_1"/>
	</vehicle>
	<vehicle id="6" depart="35" departLane="best" departSpeed="max" color="red">
 		<route edges="4_0 2_1"/>
	</vehicle>
	<vehicle id="7" depart="37" departLane="best" departSpeed="max" color="red">
 		<route edges="4_0 2_1"/>
	</vehicle>
	<vehicle id="8" depart="41" departLane="best" departSpeed="max" color="red">
 		<route edges="3_0 2_1"/>
	</vehicle>
	<vehicle id="9" depart="45" departLane="best" departSpeed="max" color="red">
 		<route edges="3_0 2_1"/>
	</vehicle>
	<vehicle id="10" depart="49" departLane="best" departSpeed="max" color="red">
 		<route edges="3_0 2_1"/>
	</vehicle>
	<vehicle id="11" depart="59" departLane="best" departSpeed="max" color="red">
 		<route edges="3_0 2_1"/>
	</vehicle>
	<vehicle id="12" depart="63" departLane="best" departSpeed="max" color="red">
 		<route edges="3_0 4_1"/>
	</vehicle>
	<vehicle id="13" depart="65" departLane="best" departSpeed="max" color="red">
 		<route edges="1_0 2_1"/>
	</vehicle>
	<vehicle id="14" depart="79" departLane="best" departSpeed="max" color="red">
 		<route edges="1_0 2_1"/>
	</vehicle>
	<vehicle id="15" depart="82" departLane="best" departSpeed="max" color="red">
 		<route edges="1_0 2_1"/>
	</vehicle>
	<vehicle id="16" depart="85" departLane="best" departSpeed="max" color="red">
 		<route edges="1_0 2_1"/>
	</vehicle>
	<vehicle id="17" depart="88" departLane="best" departSpeed="max" color="red">
 		<route edges="1_0 2_1"/>
	</vehicle>
	<vehicle id="18" depart="104" departLane="best" departSpeed="max" color="red">
 		<route edges="1_0 2_1"/>
	</vehicle>
	<vehicle id="19" depart="107" departLane="best" departSpeed="max" color="red">
 		<route edges="1_0 2_1"/>
	</vehicle>
	<vehicle id="20" depart="116" departLane="best" departSpeed="max" color="red">
 		<route edges="1_0 2_1"/>
	</vehicle>
	<vehicle id="21" depart="117" departLane="best" departSpeed="max" color="red">
 		<route edges="1_0 2_1"/>
	</vehicle>
	<vehicle id="22" depart="119" departLane="best" departSpeed="max" color="red">
 		<route edges="1_0 2_1"/>
	</vehicle>
	<vehicle id="23" depart="120" departLane="best" departSpeed="max" color="red">
 		<route edges="1_0 4_1"/>
	</vehicle>
	<vehicle id="24" depart="125" departLane="best" departSpeed="max" color="red">
 		<route edges="1_0 4_1"/>
	</vehicle>
	<vehicle id="25" depart="127" departLane="best" departSpeed="max" color="red">
 		<route edges="1_0 4_1"/>
	</vehicle>
	<vehicle id="26" depart="144" departLane="best" departSpeed="max" color="red">
 		<route edges="2_0 1_1"/>
	</vehicle>
	<vehicle id="27" depart="148" departLane="best" departSpeed="max" color="red">
 		<route edges="2_0 3_1"/>
	</vehicle>
	<vehicle id="28" depart="154" departLane="best" departSpeed="max" color="red">
 		<route edges="2_0 3_1"/>
	</vehicle>
	<vehicle id="29" depart="157" departLane="best" departSpeed="max" color="red">
 		<route edges="2_0 3_1"/>
	</vehicle>
	<vehicle id="30" depart="159" departLane="best" departSpeed="max" color="red">
 		<route edges="2_0 3_1"/>
	</vehicle>
	<vehicle id="31" depart="168" departLane="best" departSpeed="max" color="red">
 		<route edges="2_0 3_1"/>
	</vehicle>
	<vehicle id="32" depart="170" departLane="best" departSpeed="max" color="red">
 		<route edges="2_0 3_1"/>
	</vehicle>
	<vehicle id="33" depart="176" departLane="best" departSpeed="max" color="red">
 		<route edges="2_0 3_1"/>
	</vehicle>
	<vehicle id="34" depart="182" departLane="best" departSpeed="max" color="red">
 		<route edges="2_0 3_1"/>
	</vehicle>
	<vehicle id="35" depart="185" departLane="best" departSpeed="max" color="red">
 		<route edges="2_0 4_1"/>
	</vehicle>
	<vehicle id="36" depart="188" departLane="best" departSpeed="max" color="red">
 		<route edges="2_0 4_1"/>
	</vehicle>
	<vehicle id="37" depart="189" departLane="best" departSpeed="max" color="red">
 		<route edges="2_0 4_1"/>
	</vehicle>
	<vehicle id="38" depart="195" departLane="best" departSpeed="max" color="red">
 		<route edges="2_0 4_1"/>
	</vehicle>
	<vehicle id="39" depart="197" departLane="best" departSpeed="max" color="red">
 		<route edges="2_0 4_1"/>
	</vehicle>
	<vehicle id="40" depart="200" departLane="best" departSpeed="max" color="red">
 		<route edges="2_0 4_1"/>
	</vehicle>
	<vehicle id="41" depart="201" departLane="best" departSpeed="max" color="red">
 		<route edges="2_0 4_1"/>
	</vehicle>
	<vehicle id="42" depart="204" departLane="best" departSpeed="max" color="red">
 		<route edges="2_0 4_1"/>
	</vehicle>
	<vehicle id="43" depart="209" departLane="best" departSpeed="max" color="red">
 		<route edges="2_0 4_1"/>
	</vehicle>
	<vehicle id="44" depart="210" departLane="best" departSpeed="max" color="red">
 		<route edges="3_0 1_1"/>
	</vehicle>
	<vehicle id="45" depart="211" departLane="best" departSpeed="max" color="red">
 		<route edges="3_0 1_1"/>
	</vehicle>
	<vehicle id="46" depart="216" departLane="best" departSpeed="max" color="red">
 		<route edges="3_0 1_1"/>
	</vehicle>
	<vehicle id="47" depart="219" departLane="best" departSpeed="max" color="red">
 		<route edges="3_0 1_1"/>
	</vehicle>
	<vehicle id="48" depart="228" departLane="best" departSpeed="max" color="red">
 		<route edges="3_0 1_1"/>
	</vehicle>
	<vehicle id="49" depart="235" departLane="best" departSpeed="max" color="red">
 		<route edges="3_0 1_1"/>
	</vehicle>
	<vehicle id="50" depart="239" departLane="best" departSpeed="max" color="red">
 		<route edges="3_0 1_1"/>
	</vehicle>
	<vehicle id="51" depart="247" departLane="best" departSpeed="max" color="red">
 		<route edges="3_0 1_1"/>
	</vehicle>
	<vehicle id="52" depart="248" departLane="best" departSpeed="max" color="red">
 		<route edges="3_0 1_1"/>
	</vehicle>
	<vehicle id="53" depart="249" departLane="best" departSpeed="max" color="red">
 		<route edges="1_0 3_1"/>
	</vehicle>
	<vehicle id="54" depart="251" departLane="best" departSpeed="max" color="red">
 		<route edges="1_0 3_1"/>
	</vehicle>
	<vehicle id="55" depart="270" departLane="best" departSpeed="max" color="red">
 		<route edges="1_0 3_1"/>
	</vehicle>
	<vehicle id="56" depart="280" departLane="best" departSpeed="max" color="red">
 		<route edges="1_0 3_1"/>
	</vehicle>
	<vehicle id="57" depart="285" departLane="best" departSpeed="max" color="red">
 		<route edges="1_0 3_1"/>
	</vehicle>
	<vehicle id="58" depart="288" departLane="best" departSpeed="max" color="red">
 		<route edges="1_0 3_1"/>
	</vehicle>
	<vehicle id="59" depart="296" departLane="best" departSpeed="max" color="red">
 		<route edges="1_0 3_1"/>
	</vehicle>
	<vehicle id="60" depart="301" departLane="best" departSpeed="max" color="red">
 		<route edges="3_0 4_1"/>
	</vehicle>
	<vehicle id="61" depart="305" departLane="best" departSpeed="max" color="red">
 		<route edges="3_0 2_1"/>
	</vehicle>
	<vehicle id="62" depart="306" departLane="best" departSpeed="max" color="red">
 		<route edges="3_0 2_1"/>
	</vehicle>
	<vehicle id="63" depart="307" departLane="best" departSpeed="max" color="red">
 		<route edges="3_0 2_1"/>
	</vehicle>
	<vehicle id="64" depart="316" departLane="best" departSpeed="max" color="red">
 		<route edges="3_0 2_1"/>
	</vehicle>
	<vehicle id="65" depart="320" departLane="best" departSpeed="max" color="red">
 		<route edges="3_0 2_1"/>
	</vehicle>
	<vehicle id="66" depart="321" departLane="best" departSpeed="max" color="red">
 		<route edges="3_0 2_1"/>
	</vehicle>
	<vehicle id="67" depart="325" departLane="best" departSpeed="max" color="red">
 		<route edges="3_0 2_1"/>
	</vehicle>
	<vehicle id="68" depart="327" departLane="best" departSpeed="max" color="red">
 		<route edges="3_0 2_1"/>
	</vehicle>
	<vehicle id="69" depart="328" departLane="best" departSpeed="max" color="red">
 		<route edges="3_0 2_1"/>
	</vehicle>
	<vehicle id="70" depart="342" departLane="best" departSpeed="max" color="red">
 		<route edges="3_0 2_1"/>
	</vehicle>
	<vehicle id="71" depart="343" departLane="best" departSpeed="max" color="red">
 		<route edges="3_0 2_1"/>
	</vehicle>
	<vehicle id="72" depart="350" departLane="best" departSpeed="max" color="red">
 		<route edges="4_0 2_1"/>
	</vehicle>
	<vehicle id="73" depart="355" departLane="best" departSpeed="max" color="red">
 		<route edges="4_0 2_1"/>
	</vehicle>
	<vehicle id="74" depart="362" departLane="best" departSpeed="max" color="red">
 		<route edges="4_0 2_1"/>
	</vehicle>
	<vehicle id="75" depart="368" departLane="best" departSpeed="max" color="red">
 		<route edges="4_0 2_1"/>
	</vehicle>
	<vehicle id="76" depart="376" departLane="best" departSpeed="max" color="red">
 		<route edges="4_0 2_1"/>
	</vehicle>
	<vehicle id="77" depart="377" departLane="best" departSpeed="max" color="red">
 		<route edges="3_0 1_1"/>
	</vehicle>
	<vehicle id="78" depart="382" departLane="best" departSpeed="max" color="red">
 		<route edges="3_0 1_1"/>
	</vehicle>
	<vehicle id="79" depart="386" departLane="best" departSpeed="max" color="red">
 		<route edges="3_0 1_1"/>
	</vehicle>
	<vehicle id="80" depart="388" departLane="best" departSpeed="max" color="red">
 		<route edges="3_0 1_1"/>
	</vehicle>
	<vehicle id="81" depart="391" departLane="best" departSpeed="max" color="red">
 		<route edges="3_0 1_1"/>
	</vehicle>
	<vehicle id="82" depart="392" departLane="best" departSpeed="max" color="red">
 		<route edges="3_0 1_1"/>
	</vehicle>
	<vehicle id="83" depart="400" departLane="best" departSpeed="max" color="red">
 		<route edges="4_0 1_1"/>
	</vehicle>
	<vehicle id="84" depart="409" departLane="best" departSpeed="max" color="red">
 		<route edges="2_0 4_1"/>
	</vehicle>
	<vehicle id="85" depart="411" departLane="best" departSpeed="max" color="red">
 		<route edges="2_0 4_1"/>
	</vehicle>
	<vehicle id="86" depart="412" departLane="best" departSpeed="max" color="red">
 		<route edges="2_0 4_1"/>
	</vehicle>
	<vehicle id="87" depart="413" departLane="best" departSpeed="max" color="red">
 		<route edges="2_0 4_1"/>
	</vehicle>
	<vehicle id="88" depart="414" departLane="best" departSpeed="max" color="red">
 		<route edges="2_0 4_1"/>
	</vehicle>
	<vehicle id="89" depart="429" departLane="best" departSpeed="max" color="red">
 		<route edges="2_0 4_1"/>
	</vehicle>
	<vehicle id="90" depart="436" departLane="best" departSpeed="max" color="red">
 		<route edges="2_0 4_1"/>
	</vehicle>
	<vehicle id="91" depart="437" departLane="best" departSpeed="max" color="red">
 		<route edges="2_0 4_1"/>
	</vehicle>
	<vehicle id="92" depart="444" departLane="best" departSpeed="max" color="red">
 		<route edges="2_0 4_1"/>
	</vehicle>
	<vehicle id="93" depart="445" departLane="best" departSpeed="max" color="red">
 		<route edges="2_0 4_1"/>
	</vehicle>
	<vehicle id="94" depart="446" departLane="best" departSpeed="max" color="red">
 		<route edges="2_0 4_1"/>
	</vehicle>
	<vehicle id="95" depart="450" departLane="best" departSpeed="max" color="red">
 		<route edges="2_0 4_1"/>
	</vehicle>
	<vehicle id="96" depart="452" departLane="best" departSpeed="max" color="red">
 		<route edges="2_0 4_1"/>
	</vehicle>
	<vehicle id="97" depart="458" departLane="best" departSpeed="max" color="red">
 		<route edges="2_0 4_1"/>
	</vehicle>
	<vehicle id="98" depart="471" departLane="best" departSpeed="max" color="red">
 		<route edges="2_0 4_1"/>
	</vehicle>
	<vehicle id="99" depart="477" departLane="best" departSpeed="max" color="red">
 		<route edges="2_0 4_1"/>
	</vehicle>
	<vehicle id="100" depart="480" departLane="best" departSpeed="max" color="red">
 		<route edges="2_0 4_1"/>
	</vehicle>
	<vehicle id="101" depart="481" departLane="best" departSpeed="max" color="red">
 		<route edges="1_0 4_1"/>
	</vehicle>
	<vehicle id="102" depart="483" departLane="best" departSpeed="max" color="red">
 		<route edges="2_0 1_1"/>
	</vehicle>
	<vehicle id="103" depart="490" departLane="best" departSpeed="max" color="red">
 		<route edges="2_0 1_1"/>
	</vehicle>
	<vehicle id="104" depart="493" departLane="best" departSpeed="max" color="red">
 		<route edges="2_0 1_1"/>
	</vehicle>
	<vehicle id="105" depart="496" departLane="best" departSpeed="max" color="red">
 		<route edges="2_0 1_1"/>
	</vehicle>
	<vehicle id="106" depart="501" departLane="best" departSpeed="max" color="red">
 		<route edges="2_0 1_1"/>
	</vehicle>
	<vehicle id="107" depart="503" departLane="best" departSpeed="max" color="red">
 		<route edges="2_0 1_1"/>
	</vehicle>
	<vehicle id="108" depart="510" departLane="best" departSpeed="max" color="red">
 		<route edges="1_0 3_1"/>
	</vehicle>
	<vehicle id="109" depart="511" departLane="best" departSpeed="max" color="red">
 		<route edges="1_0 3_1"/>
	</vehicle>
	<vehicle id="110" depart="515" departLane="best" departSpeed="max" color="red">
 		<route edges="1_0 3_1"/>
	</vehicle>
	<vehicle id="111" depart="517" departLane="best" departSpeed="max" color="red">
 		<route edges="1_0 3_1"/>
	</vehicle>
	<vehicle id="112" depart="521" departLane="best" departSpeed="max" color="red">
 		<route edges="1_0 3_1"/>
	</vehicle>
	<vehicle id="113" depart="522" departLane="best" departSpeed="max" color="red">
 		<route edges="1_0 3_1"/>
	</vehicle>
	<vehicle id="114" depart="539" departLane="best" departSpeed="max" color="red">
 		<route edges="1_0 3_1"/>
	</vehicle>
	<vehicle id="115" depart="543" departLane="best" departSpeed="max" color="red">
 		<route edges="1_0 3_1"/>
	</vehicle>
	<vehicle id="116" depart="545" departLane="best" departSpeed="max" color="red">
 		<route edges="1_0 2_1"/>
	</vehicle>
	<vehicle id="117" depart="548" departLane="best" departSpeed="max" color="red">
 		<route edges="1_0 2_1"/>
	</vehicle>
	<vehicle id="118" depart="553" departLane="best" departSpeed="max" color="red">
 		<route edges="1_0 2_1"/>
	</vehicle>
	<vehicle id="119" depart="559" departLane="best" departSpeed="max" color="red">
 		<route edges="1_0 2_1"/>
	</vehicle>
	<vehicle id="120" depart="561" departLane="best" departSpeed="max" color="red">
 		<route edges="2_0 3_1"/>
	</vehicle>
	<vehicle id="121" depart="572" departLane="best" departSpeed="max" color="red">
 		<route edges="2_0 3_1"/>
	</vehicle>
	<vehicle id="122" depart="576" departLane="best" departSpeed="max" color="red">
 		<route edges="2_0 3_1"/>
	</vehicle>
	<vehicle id="123" depart="584" departLane="best" departSpeed="max" color="red">
 		<route edges="2_0 3_1"/>
	</vehicle>
	<vehicle id="124" depart="592" departLane="best" departSpeed="max" color="red">
 		<route edges="2_0 3_1"/>
	</vehicle>
	<vehicle id="125" depart="593" departLane="best" departSpeed="max" color="red">
 		<route edges="2_0 3_1"/>
	</vehicle>
	<vehicle id="126" depart="596" departLane="best" departSpeed="max" color="red">
 		<route edges="2_0 3_1"/>
	</vehicle>
	<vehicle id="127" depart="599" departLane="best" departSpeed="max" color="red">
 		<route edges="2_0 3_1"/>
	</vehicle>
	<vehicle id="128" depart="602" departLane="best" departSpeed="max" color="red">
 		<route edges="4_0 2_1"/>
	</vehicle>
	<vehicle id="129" depart="603" departLane="best" departSpeed="max" color="red">
 		<route edges="4_0 2_1"/>
	</vehicle>
	<vehicle id="130" depart="604" departLane="best" departSpeed="max" color="red">
 		<route edges="4_0 2_1"/>
	</vehicle>
	<vehicle id="131" depart="615" departLane="best" departSpeed="max" color="red">
 		<route edges="4_0 2_1"/>
	</vehicle>
	<vehicle id="132" depart="627" departLane="best" departSpeed="max" color="red">
 		<route edges="4_0 2_1"/>
	</vehicle>
	<vehicle id="133" depart="637" departLane="best" departSpeed="max" color="red">
 		<route edges="3_0 2_1"/>
	</vehicle>
	<vehicle id="134" depart="649" departLane="best" departSpeed="max" color="red">
 		<route edges="3_0 2_1"/>
	</vehicle>
	<vehicle id="135" depart="655" departLane="best" departSpeed="max" color="red">
 		<route edges="3_0 2_1"/>
	</vehicle>
	<vehicle id="136" depart="656" departLane="best" departSpeed="max" color="red">
 		<route edges="3_0 2_1"/>
	</vehicle>
	<vehicle id="137" depart="657" departLane="best" departSpeed="max" color="red">
 		<route edges="3_0 2_1"/>
	</vehicle>
	<vehicle id="138" depart="672" departLane="best" departSpeed="max" color="red">
 		<route edges="3_0 1_1"/>
	</vehicle>
	<vehicle id="139" depart="673" departLane="best" departSpeed="max" color="red">
 		<route edges="3_0 1_1"/>
	</vehicle>
	<vehicle id="140" depart="680" departLane="best" departSpeed="max" color="red">
 		<route edges="3_0 1_1"/>
	</vehicle>
	<vehicle id="141" depart="684" departLane="best" departSpeed="max" color="red">
 		<route edges="3_0 1_1"/>
	</vehicle>
	<vehicle id="142" depart="688" departLane="best" departSpeed="max" color="red">
 		<route edges="2_0 4_1"/>
	</vehicle>
	<vehicle id="143" depart="691" departLane="best" departSpeed="max" color="red">
 		<route edges="2_0 4_1"/>
	</vehicle>
	<vehicle id="144" depart="695" departLane="best" departSpeed="max" color="red">
 		<route edges="2_0 4_1"/>
	</vehicle>
	<vehicle id="145" depart="701" departLane="best" departSpeed="max" color="red">
 		<route edges="2_0 4_1"/>
	</vehicle>
	<vehicle id="146" depart="706" departLane="best" departSpeed="max" color="red">
 		<route edges="2_0 4_1"/>
	</vehicle>
	<vehicle id="147" depart="709" departLane="best" departSpeed="max" color="red">
 		<route edges="2_0 4_1"/>
	</vehicle>
	<vehicle id="148" depart="728" departLane="best" departSpeed="max" color="red">
 		<route edges="2_0 1_1"/>
	</vehicle>
	<vehicle id="149" depart="732" departLane="best" departSpeed="max" color="red">
 		<route edges="2_0 1_1"/>
	</vehicle>
	<vehicle id="150" depart="737" departLane="best" departSpeed="max" color="red">
 		<route edges="2_0 1_1"/>
	</vehicle>
	<vehicle id="151" depart="752" departLane="best" departSpeed="max" color="red">
 		<route edges="1_0 4_1"/>
	</vehicle>
	<vehicle id="152" depart="753" departLane="best" departSpeed="max" color="red">
 		<route edges="1_0 4_1"/>
	</vehicle>
	<vehicle id="153" depart="756" departLane="best" departSpeed="max" color="red">
 		<route edges="1_0 4_1"/>
	</vehicle>
	<vehicle id="154" depart="759" departLane="best" departSpeed="max" color="red">
 		<route edges="1_0 3_1"/>
	</vehicle>
	<vehicle id="155" depart="762" departLane="best" departSpeed="max" color="red">
 		<route edges="1_0 3_1"/>
	</vehicle>
	<vehicle id="156" depart="775" departLane="best" departSpeed="max" color="red">
 		<route edges="1_0 3_1"/>
	</vehicle>
	<vehicle id="157" depart="776" departLane="best" departSpeed="max" color="red">
 		<route edges="1_0 3_1"/>
	</vehicle>
	<vehicle id="158" depart="794" departLane="best" departSpeed="max" color="red">
 		<route edges="1_0 3_1"/>
	</vehicle>
	<vehicle id="159" depart="800" departLane="best" departSpeed="max" color="red">
 		<route edges="1_0 3_1"/>
	</vehicle>
	<vehicle id="160" depart="802" departLane="best" departSpeed="max" color="red">
 		<route edges="1_0 3_1"/>
	</vehicle>
	<vehicle id="161" depart="810" departLane="best" departSpeed="max" color="red">
 		<route edges="1_0 3_1"/>
	</vehicle>
	<vehicle id="162" depart="822" departLane="best" departSpeed="max" color="red">
 		<route edges="1_0 2_1"/>
	</vehicle>
	<vehicle id="163" depart="824" departLane="best" departSpeed="max" color="red">
 		<route edges="1_0 2_1"/>
	</vehicle>
	<vehicle id="164" depart="827" departLane="best" departSpeed="max" color="red">
 		<route edges="1_0 2_1"/>
	</vehicle>
	<vehicle id="165" depart="837" departLane="best" departSpeed="max" color="red">
 		<route edges="1_0 2_1"/>
	</vehicle>
	<vehicle id="166" depart="847" departLane="best" departSpeed="max" color="red">
 		<route edges="1_0 2_1"/>
	</vehicle>
	<vehicle id="167" depart="850" departLane="best" departSpeed="max" color="red">
 		<route edges="1_0 2_1"/>
	</vehicle>
	<vehicle id="168" depart="860" departLane="best" departSpeed="max" color="red">
 		<route edges="2_0 3_1"/>
	</vehicle>
	<vehicle id="169" depart="863" departLane="best" departSpeed="max" color="red">
 		<route edges="2_0 3_1"/>
	</vehicle>
	<vehicle id="170" depart="869" departLane="best" departSpeed="max" color="red">
 		<route edges="2_0 3_1"/>
	</vehicle>
	<vehicle id="171" depart="870" departLane="best" departSpeed="max" color="red">
 		<route edges="2_0 3_1"/>
	</vehicle>
	<vehicle id="172" depart="873" departLane="best" departSpeed="max" color="red">
 		<route edges="2_0 3_1"/>
	</vehicle>
	<vehicle id="173" depart="876" departLane="best" departSpeed="max" color="red">
 		<route edges="4_0 1_1"/>
	</vehicle>
	<vehicle id="174" depart="881" departLane="best" departSpeed="max" color="red">
 		<route edges="4_0 1_1"/>
	</vehicle>
	<vehicle id="175" depart="883" departLane="best" departSpeed="max" color="red">
 		<route edges="4_0 1_1"/>
	</vehicle>
	<vehicle id="176" depart="884" departLane="best" departSpeed="max" color="red">
 		<route edges="4_0 1_1"/>
	</vehicle>
	<vehicle id="177" depart="889" departLane="best" departSpeed="max" color="red">
 		<route edges="4_0 1_1"/>
	</vehicle>
	<vehicle id="178" depart="897" departLane="best" departSpeed="max" color="red">
 		<route edges="3_0 4_1"/>
	</vehicle>
	<vehicle id="179" depart="907" departLane="best" departSpeed="max" color="red">
 		<route edges="1_0"/>
	</vehicle>
	<vehicle id="180" depart="922" departLane="best" departSpeed="max" color="red">
 		<route edges="1_0 2_1"/>
	</vehicle>
	<vehicle id="181" depart="932" departLane="best" departSpeed="max" color="red">
 		<route edges="1_0 2_1"/>
	</vehicle>
	<vehicle id="182" depart="949" departLane="best" departSpeed="max" color="red">
 		<route edges="1_0 2_1"/>
	</vehicle>
	<vehicle id="183" depart="952" departLane="best" departSpeed="max" color="red">
 		<route edges="1_0 2_1"/>
	</vehicle>
	<vehicle id="184" depart="953" departLane="best" departSpeed="max" color="red">
 		<route edges="1_0 3_1"/>
	</vehicle>
	<vehicle id="185" depart="959" departLane="best" departSpeed="max" color="red">
 		<route edges="1_0 3_1"/>
	</vehicle>
	<vehicle id="186" depart="968" departLane="best" departSpeed="max" color="red">
 		<route edges="1_0 3_1"/>
	</vehicle>
	<vehicle id="187" depart="978" departLane="best" departSpeed="max" color="red">
 		<route edges="1_0 3_1"/>
	</vehicle>
	<vehicle id="188" depart="979" departLane="best" departSpeed="max" color="red">
 		<route edges="1_0 3_1"/>
	</vehicle>
	<vehicle id="189" depart="982" departLane="best" departSpeed="max" color="red">
 		<route edges="1_0 3_1"/>
	</vehicle>
	<vehicle id="190" depart="985" departLane="best" departSpeed="max" color="red">
 		<route edges="1_0 3_1"/>
	</vehicle>
	<vehicle id="191" depart="987" departLane="best" departSpeed="max" color="red">
 		<route edges="1_0 3_1"/>
	</vehicle>
	<vehicle id="192" depart="990" departLane="best" departSpeed="max" color="red">
 		<route edges="1_0 3_1"/>
	</vehicle>
	<vehicle id="193" depart="993" departLane="best" departSpeed="max" color="red">
 		<route edges="2_0 1_1"/>
	</vehicle>
	<vehicle id="194" depart="1001" departLane="best" departSpeed="max" color="red">
 		<route edges="3_0 4_1"/>
	</vehicle>
	<vehicle id="195" depart="1002" departLane="best" departSpeed="max" color="red">
 		<route edges="2_0 4_1"/>
	</vehicle>
	<vehicle id="196" depart="1004" departLane="best" departSpeed="max" color="red">
 		<route edges="2_0 4_1"/>
	</vehicle>
	<vehicle id="197" depart="1005" departLane="best" departSpeed="max" color="red">
 		<route edges="2_0 4_1"/>
	</vehicle>
	<vehicle id="198" depart="1010" departLane="best" departSpeed="max" color="red">
 		<route edges="2_0 4_1"/>
	</vehicle>
	<vehicle id="199" depart="1013" departLane="best" departSpeed="max" color="red">
 		<route edges="2_0 4_1"/>
	</vehicle>
	<vehicle id="200" depart="1020" departLane="best" departSpeed="max" color="red">
 		<route edges="2_0 4_1"/>
	</vehicle>
	<vehicle id="201" depart="1024" departLane="best" departSpeed="max" color="red">
 		<route edges="2_0 4_1"/>
	</vehicle>
	<vehicle id="202" depart="1026" departLane="best" departSpeed="max" color="red">
 		<route edges="2_0 4_1"/>
	</vehicle>
	<vehicle id="203" depart="1027" departLane="best" departSpeed="max" color="red">
 		<route edges="2_0 4_1"/>
	</vehicle>
	<vehicle id="204" depart="1029" departLane="best" departSpeed="max" color="red">
 		<route edges="2_0 4_1"/>
	</vehicle>
	<vehicle id="205" depart="1039" departLane="best" departSpeed="max" color="red">
 		<route edges="3_0 1_1"/>
	</vehicle>
	<vehicle id="206" depart="1047" departLane="best" departSpeed="max" color="red">
 		<route edges="3_0 1_1"/>
	</vehicle>
	<vehicle id="207" depart="1060" departLane="best" departSpeed="max" color="red">
 		<route edges="3_0 1_1"/>
	</vehicle>
	<vehicle id="208" depart="1061" departLane="best" departSpeed="max" color="red">
 		<route edges="3_0 1_1"/>
	</vehicle>
	<vehicle id="209" depart="1069" departLane="best" departSpeed="max" color="red">
 		<route edges="3_0 1_1"/>
	</vehicle>
	<vehicle id="210" depart="1087" departLane="best" departSpeed="max" color="red">
 		<route edges="3_0 1_1"/>
	</vehicle>
	<vehicle id="211" depart="1090" departLane="best" departSpeed="max" color="red">
 		<route edges="3_0 1_1"/>
	</vehicle>
	<vehicle id="212" depart="1098" departLane="best" departSpeed="max" color="red">
 		<route edges="3_0 1_1"/>
	</vehicle>
	<vehicle id="213" depart="1109" departLane="best" departSpeed="max" color="red">
 		<route edges="3_0 1_1"/>
	</vehicle>
	<vehicle id="214" depart="1110" departLane="best" departSpeed="max" color="red">
 		<route edges="3_0 1_1"/>
	</vehicle>
	<vehicle id="215" depart="1121" departLane="best" departSpeed="max" color="red">
 		<route edges="3_0 2_1"/>
	</vehicle>
	<vehicle id="216" depart="1125" departLane="best" departSpeed="max" color="red">
 		<route edges="3_0 2_1"/>
	</vehicle>
	<vehicle id="217" depart="1128" departLane="best" departSpeed="max" color="red">
 		<route edges="3_0 2_1"/>
	</vehicle>
	<vehicle id="218" depart="1130" departLane="best" departSpeed="max" color="red">
 		<route edges="3_0 2_1"/>
	</vehicle>
	<vehicle id="219" depart="1141" departLane="best" departSpeed="max" color="red">
 		<route edges="4_0 2_1"/>
	</vehicle>
	<vehicle id="220" depart="1145" departLane="best" departSpeed="max" color="red">
 		<route edges="4_0 2_1"/>
	</vehicle>
	<vehicle id="221" depart="1148" departLane="best" departSpeed="max" color="red">
 		<route edges="4_0 2_1"/>
	</vehicle>
	<vehicle id="222" depart="1152" departLane="best" departSpeed="max" color="red">
 		<route edges="4_0 2_1"/>
	</vehicle>
	<vehicle id="223" depart="1156" departLane="best" departSpeed="max" color="red">
 		<route edges="4_0 2_1"/>
	</vehicle>
	<vehicle id="224" depart="1158" departLane="best" departSpeed="max" color="red">
 		<route edges="4_0 2_1"/>
	</vehicle>
	<vehicle id="225" depart="1159" departLane="best" departSpeed="max" color="red">
 		<route edges="4_0 1_1"/>
	</vehicle>
	<vehicle id="226" depart="1168" departLane="best" departSpeed="max" color="red">
 		<route edges="4_0 1_1"/>
	</vehicle>
	<vehicle id="227" depart="1177" departLane="best" departSpeed="max" color="red">
 		<route edges="4_0 1_1"/>
	</vehicle>
	<vehicle id="228" depart="1188" departLane="best" departSpeed="max" color="red">
 		<route edges="4_0 1_1"/>
	</vehicle>
	<vehicle id="229" depart="1192" departLane="best" departSpeed="max" color="red">
 		<route edges="2_0 3_1"/>
	</vehicle>
	<vehicle id="230" depart="1199" departLane="best" departSpeed="max" color="red">
 		<route edges="2_0 3_1"/>
	</vehicle>
	<vehicle id="231" depart="1201" departLane="best" departSpeed="max" color="red">
 		<route edges="3_0 2_1"/>
	</vehicle>
	<vehicle id="232" depart="1207" departLane="best" departSpeed="max" color="red">
 		<route edges="1_0 3_1"/>
	</vehicle>
	<vehicle id="233" depart="1211" departLane="best" departSpeed="max" color="red">
 		<route edges="1_0 3_1"/>
	</vehicle>
	<vehicle id="234" depart="1213" departLane="best" departSpeed="max" color="red">
 		<route edges="1_0 3_1"/>
	</vehicle>
	<vehicle id="235" depart="1266" departLane="best" departSpeed="max" color="red">
 		<route edges="1_0 3_1"/>
	</vehicle>
	<vehicle id="236" depart="1268" departLane="best" departSpeed="max" color="red">
 		<route edges="1_0 3_1"/>
	</vehicle>
	<vehicle id="237" depart="1270" departLane="best" departSpeed="max" color="red">
 		<route edges="1_0 2_1"/>
	</vehicle>
	<vehicle id="238" depart="1291" departLane="best" departSpeed="max" color="red">
 		<route edges="1_0 2_1"/>
	</vehicle>
	<vehicle id="239" depart="1294" departLane="best" departSpeed="max" color="red">
 		<route edges="1_0 2_1"/>
	</vehicle>
	<vehicle id="240" depart="1297" departLane="best" departSpeed="max" color="red">
 		<route edges="1_0 2_1"/>
	</vehicle>
	<vehicle id="241" depart="1300" departLane="best" departSpeed="max" color="red">
 		<route edges="1_0 2_1"/>
	</vehicle>
	<vehicle id="242" depart="1302" departLane="best" departSpeed="max" color="red">
 		<route edges="1_0 2_1"/>
	</vehicle>
	<vehicle id="243" depart="1305" departLane="best" departSpeed="max" color="red">
 		<route edges="1_0 2_1"/>
	</vehicle>
	<vehicle id="244" depart="1311" departLane="best" departSpeed="max" color="red">
 		<route edges="1_0 2_1"/>
	</vehicle>
	<vehicle id="245" depart="1313" departLane="best" departSpeed="max" color="red">
 		<route edges="1_0 2_1"/>
	</vehicle>
	<vehicle id="246" depart="1315" departLane="best" departSpeed="max" color="red">
 		<route edges="1_0 2_1"/>
	</vehicle>