<?xml version='1.0' encoding='UTF-8'?>
<routes xmlns:xsi="http://www.w3.org/2001/XMLSchema-instance" xsi:noNamespaceSchemaLocation="http://sumo.dlr.de/xsd/routes_file.xsd">
	<vehicle id="0" depart="89" departLane="best" departSpeed="max" color="red">
 		<route edges="4_0 2_1"/>
	</vehicle>
	<vehicle id="1" depart="133" departLane="best" departSpeed="max" color="red">
 		<route edges="4_0 1_1"/>
	</vehicle>
	<vehicle id="2" depart="396" departLane="best" departSpeed="max" color="red">
 		<route edges="2_0 4_1"/>
	</vehicle>
	<vehicle id="3" depart="437" departLane="best" departSpeed="max" color="red">
 		<route edges="3_0 1_1"/>
	</vehicle>
	<vehicle id="4" depart="447" departLane="best" departSpeed="max" color="red">
 		<route edges="3_0 1_1"/>
	</vehicle>
	<vehicle id="5" depart="470" departLane="best" departSpeed="max" color="red">
 		<route edges="3_0 1_1"/>
	</vehicle>
	<vehicle id="6" depart="479" departLane="best" departSpeed="max" color="red">
 		<route edges="3_0 1_1"/>
	</vehicle>
	<vehicle id="7" depart="493" departLane="best" departSpeed="max" color="red">
 		<route edges="1_0 3_1"/>
	</vehicle>
	<vehicle id="8" depart="536" departLane="best" departSpeed="max" color="red">
 		<route edges="1_0 3_1"/>
	</vehicle>
	<vehicle id="9" depart="605" departLane="best" departSpeed="max" color="red">
 		<route edges="2_0 4_1"/>
	</vehicle>
	<vehicle id="10" depart="607" departLane="best" departSpeed="max" color="red">
 		<route edges="1_0 3_1"/>
	</vehicle>
	<vehicle id="11" depart="639" departLane="best" departSpeed="max" color="red">
 		<route edges="1_0 3_1"/>
	</vehicle>
	<vehicle id="12" depart="653" departLane="best" departSpeed="max" color="red">
 		<route edges="1_0 3_1"/>
	</vehicle>
	<vehicle id="13" depart="765" departLane="best" departSpeed="max" color="red">
 		<route edges="1_0 3_1"/>
	</vehicle>
	<vehicle id="14" depart="830" departLane="best" departSpeed="max" color="red">
 		<route edges="1_0 4_1"/>
	</vehicle>
	<vehicle id="15" depart="852" departLane="best" departSpeed="max" color="red">
 		<route edges="3_0 1_1"/>
	</vehicle>
	<vehicle id="16" depart="861" departLane="best" departSpeed="max" color="red">
 		<route edges="3_0 1_1"/>
	</vehicle>
	<vehicle id="17" depart="870" departLane="best" departSpeed="max" color="red">
 		<route edges="3_0 1_1"/>
	</vehicle>
	<vehicle id="18" depart="884" departLane="best" departSpeed="max" color="red">
 		<route edges="3_0 1_1"/>
	</vehicle>
	<vehicle id="19" depart="889" departLane="best" departSpeed="max" color="red">
 		<route edges="4_0 1_1"/>
	</vehicle>
	<vehicle id="20" depart="1045" departLane="best" departSpeed="max" color="red">
 		<route edges="2_0 3_1"/>
	</vehicle>
	<vehicle id="21" depart="1050" departLane="best" departSpeed="max" color="red">
 		<route edges="2_0 4_1"/>
	</vehicle>
	<vehicle id="22" depart="1072" departLane="best" departSpeed="max" color="red">
 		<route edges="3_0 1_1"/>
	</vehicle>
	<vehicle id="23" depart="1100" departLane="best" departSpeed="max" color="red">
 		<route edges="3_0 1_1"/>
	</vehicle>
	<vehicle id="24" depart="1167" departLane="best" departSpeed="max" color="red">
 		<route edges="1_0 3_1"/>
	</vehicle>
	<vehicle id="25" depart="1168" departLane="best" departSpeed="max" color="red">
 		<route edges="1_0 2_1"/>
	</vehicle>
	<vehicle id="26" depart="1195" departLane="best" departSpeed="max" color="red">
 		<route edges="3_0 2_1"/>
	</vehicle>
	<vehicle id="27" depart="1229" departLane="best" departSpeed="max" color="red">
 		<route edges="1_0 2_1"/>
	</vehicle>
	<vehicle id="28" depart="1235" departLane="best" departSpeed="max" color="red">
 		<route edges="1_0 2_1"/>
	</vehicle>
	<vehicle id="29" depart="1296" departLane="best" departSpeed="max" color="red">
 		<route edges="1_0 3_1"/>
	</vehicle>
	<vehicle id="30" depart="1347" departLane="best" departSpeed="max" color="red">
 		<route edges="1_0 3_1"/>
	</vehicle>
	<vehicle id="31" depart="1380" departLane="best" departSpeed="max" color="red">
 		<route edges="2_0 4_1"/>
	</vehicle>
	<vehicle id="32" depart="1382" departLane="best" departSpeed="max" color="red">
 		<route edges="4_0 1_1"/>
	</vehicle>
	<vehicle id="33" depart="1384" departLane="best" departSpeed="max" color="red">
 		<route edges="4_0 1_1"/>
	</vehicle>
	<vehicle id="34" depart="1390" departLane="best" departSpeed="max" color="red">
 		<route edges="4_0 2_1"/>
	</vehicle>
	<vehicle id="35" depart="1412" departLane="best" departSpeed="max" color="red">
 		<route edges="3_0 1_1"/>
	</vehicle>
	<vehicle id="36" depart="1447" departLane="best" departSpeed="max" color="red">
 		<route edges="3_0 1_1"/>
	</vehicle>
	<vehicle id="37" depart="1478" departLane="best" departSpeed="max" color="red">
 		<route edges="3_0 1_1"/>
	</vehicle>
	<vehicle id="38" depart="1503" departLane="best" departSpeed="max" color="red">
 		<route edges="2_0 3_1"/>
	</vehicle>
	<vehicle id="39" depart="1649" departLane="best" departSpeed="max" color="red">
 		<route edges="2_0 3_1"/>
	</vehicle>
	<vehicle id="40" depart="1727" departLane="best" departSpeed="max" color="red">
 		<route edges="1_0 2_1"/>
	</vehicle>
	<vehicle id="41" depart="1743" departLane="best" departSpeed="max" color="red">
 		<route edges="1_0 3_1"/>
	</vehicle>
	<vehicle id="42" depart="1756" departLane="best" departSpeed="max" color="red">
 		<route edges="2_0 1_1"/>
	</vehicle>
	<vehicle id="43" depart="1769" departLane="best" departSpeed="max" color="red">
 		<route edges="3_0 2_1"/>
	</vehicle>
	<vehicle id="44" depart="1823" departLane="best" departSpeed="max" color="red">
 		<route edges="1_0 2_1"/>
	</vehicle>
	<vehicle id="45" depart="1828" departLane="best" departSpeed="max" color="red">
 		<route edges="3_0 1_1"/>
	</vehicle>
	<vehicle id="46" depart="1838" departLane="best" departSpeed="max" color="red">
 		<route edges="3_0 1_1"/>
	</vehicle>
	<vehicle id="47" depart="1884" departLane="best" departSpeed="max" color="red">
 		<route edges="3_0 1_1"/>
	</vehicle>
	<vehicle id="48" depart="1894" departLane="best" departSpeed="max" color="red">
 		<route edges="3_0 1_1"/>
	</vehicle>
	<vehicle id="49" depart="1914" departLane="best" departSpeed="max" color="red">
 		<route edges="2_0 3_1"/>
	</vehicle>
	<vehicle id="50" depart="2041" departLane="best" departSpeed="max" color="red">
 		<route edges="2_0 3_1"/>
	</vehicle>
	<vehicle id="51" depart="2060" departLane="best" departSpeed="max" color="red">
 		<route edges="1_0 4_1"/>
	</vehicle>
	<vehicle id="52" depart="2077" departLane="best" departSpeed="max" color="red">
 		<route edges="1_0 3_1"/>
	</vehicle>
	<vehicle id="53" depart="2104" departLane="best" departSpeed="max" color="red">
 		<route edges="3_0 2_1"/>
	</vehicle>
	<vehicle id="54" depart="2176" departLane="best" departSpeed="max" color="red">
 		<route edges="3_0 1_1"/>
	</vehicle>
	<vehicle id="55" depart="2240" departLane="best" departSpeed="max" color="red">
 		<route edges="2_0 4_1"/>
	</vehicle>
	<vehicle id="56" depart="2264" departLane="best" departSpeed="max" color="red">
 		<route edges="1_0 4_1"/>
	</vehicle>
	<vehicle id="57" depart="2282" departLane="best" departSpeed="max" color="red">
 		<route edges="1_0 3_1"/>
	</vehicle>
	<vehicle id="58" depart="2288" departLane="best" departSpeed="max" color="red">
 		<route edges="2_0 3_1"/>
	</vehicle>
	<vehicle id="59" depart="2321" departLane="best" departSpeed="max" color="red">
 		<route edges="2_0 3_1"/>
	</vehicle>
	<vehicle id="60" depart="2323" departLane="best" departSpeed="max" color="red">
 		<route edges="2_0 3_1"/>
	</vehicle>
	<vehicle id="61" depart="2373" departLane="best" departSpeed="max" color="red">
 		<route edges="2_0 3_1"/>
	</vehicle>
	<vehicle id="62" depart="2376" departLane="best" departSpeed="max" color="red">
 		<route edges="4_0 1_1"/>
	</vehicle>
	<vehicle id="63" depart="2429" departLane="best" departSpeed="max" color="red">
 		<route edges="4_0 1_1"/>
	</vehicle>
	<vehicle id="64" depart="2431" departLane="best" departSpeed="max" color="red">
 		<route edges="3_0 1_1"/>
	</vehicle>
	<vehicle id="65" depart="2472" departLane="best" departSpeed="max" color="red">
 		<route edges="2_0 4_1"/>
	</vehicle>
	<vehicle id="66" depart="2556" departLane="best" departSpeed="max" color="red">
 		<route edges="2_0 4_1"/>
	</vehicle>
	<vehicle id="67" depart="2603" departLane="best" departSpeed="max" color="red">
 		<route edges="2_0 3_1"/>
	</vehicle>
	<vehicle id="68" depart="2614" departLane="best" departSpeed="max" color="red">
 		<route edges="1_0 3_1"/>
	</vehicle>
	<vehicle id="69" depart="2730" departLane="best" departSpeed="max" color="red">
 		<route edges="1_0 3_1"/>
	</vehicle>
	<vehicle id="70" depart="2731" departLane="best" departSpeed="max" color="red">
 		<route edges="1_0 3_1"/>
	</vehicle>
	<vehicle id="71" depart="2742" departLane="best" departSpeed="max" color="red">
 		<route edges="1_0 4_1"/>
	</vehicle>
	<vehicle id="72" depart="2750" departLane="best" departSpeed="max" color="red">
 		<route edges="1_0 4_1"/>
	</vehicle>
	<vehicle id="73" depart="2763" departLane="best" departSpeed="max" color="red">
 		<route edges="1_0 4_1"/>
	</vehicle>
	<vehicle id="74" depart="2765" departLane="best" departSpeed="max" color="red">
 		<route edges="2_0"/>
	</vehicle>
	<vehicle id="75" depart="2772" departLane="best" departSpeed="max" color="red">
 		<route edges="2_0 3_1"/>
	</vehicle>
	<vehicle id="76" depart="2802" departLane="best" departSpeed="max" color="red">
 		<route edges="2_0 4_1"/>
	</vehicle>
	<vehicle id="77" depart="2806" departLane="best" departSpeed="max" color="red">
 		<route edges="2_0 4_1"/>
	</vehicle>
	<vehicle id="78" depart="2816" departLane="best" departSpeed="max" color="red">
 		<route edges="3_0 1_1"/>
	</vehicle>
	<vehicle id="79" depart="2832" departLane="best" departSpeed="max" color="red">
 		<route edges="3_0 1_1"/>
	</vehicle>
	<vehicle id="80" depart="2858" departLane="best" departSpeed="max" color="red">
 		<route edges="3_0 1_1"/>
	</vehicle>
	<vehicle id="81" depart="2882" departLane="best" departSpeed="max" color="red">
 		<route edges="3_0 1_1"/>
	</vehicle>
	<vehicle id="82" depart="2897" departLane="best" departSpeed="max" color="red">
 		<route edges="3_0 4_1"/>
	</vehicle>
	<vehicle id="83" depart="2910" departLane="best" departSpeed="max" color="red">
 		<route edges="4_0 1_1"/>
	</vehicle>
	<vehicle id="84" depart="2914" departLane="best" departSpeed="max" color="red">
 		<route edges="4_0 1_1"/>
	</vehicle>
	<vehicle id="85" depart="2933" departLane="best" departSpeed="max" color="red">
 		<route edges="4_0 1_1"/>
	</vehicle>
	<vehicle id="86" depart="2938" departLane="best" departSpeed="max" color="red">
 		<route edges="4_0 2_1"/>
	</vehicle>
	<vehicle id="87" depart="2962" departLane="best" departSpeed="max" color="red">
 		<route edges="1_0 2_1"/>
	</vehicle>
	<vehicle id="88" depart="3008" departLane="best" departSpeed="max" color="red">
 		<route edges="1_0"/>
	</vehicle>
	<vehicle id="89" depart="3032" departLane="best" departSpeed="max" color="red">
 		<route edges="1_0"/>
	</vehicle>
	<vehicle id="90" depart="3033" departLane="best" departSpeed="max" color="red">
 		<route edges="1_0 3_1"/>
	</vehicle>
	<vehicle id="91" depart="3074" departLane="best" departSpeed="max" color="red">
 		<route edges="1_0 3_1"/>
	</vehicle>
	<vehicle id="92" depart="3095" departLane="best" departSpeed="max" color="red">
 		<route edges="1_0 3_1"/>
	</vehicle>
	<vehicle id="93" depart="3154" departLane="best" departSpeed="max" color="red">
 		<route edges="1_0 3_1"/>
	</vehicle>
	<vehicle id="94" depart="3161" departLane="best" departSpeed="max" color="red">
 		<route edges="1_0 3_1"/>
	</vehicle>
	<vehicle id="95" depart="3162" departLane="best" departSpeed="max" color="red">
 		<route edges="1_0 4_1"/>
	</vehicle>
	<vehicle id="96" depart="3165" departLane="best" departSpeed="max" color="red">
 		<route edges="1_0 4_1"/>
	</vehicle>
	<vehicle id="97" depart="3184" departLane="best" departSpeed="max" color="red">
 		<route edges="2_0 1_1"/>
	</vehicle>
	<vehicle id="98" depart="3192" departLane="best" departSpeed="max" color="red">
 		<route edges="2_0 3_1"/>
	</vehicle>
	<vehicle id="99" depart="3196" departLane="best" departSpeed="max" color="red">
 		<route edges="2_0 3_1"/>
	</vehicle>
	<vehicle id="100" depart="3199" departLane="best" departSpeed="max" color="red">
 		<route edges="2_0 4_1"/>
	</vehicle>
	<vehicle id="101" depart="3206" departLane="best" departSpeed="max" color="red">
 		<route edges="2_0 4_1"/>
	</vehicle>
	<vehicle id="102" depart="3217" departLane="best" departSpeed="max" color="red">
 		<route edges="2_0 4_1"/>
	</vehicle>
	<vehicle id="103" depart="3236" departLane="best" departSpeed="max" color="red">
 		<route edges="2_0 4_1"/>
	</vehicle>
	<vehicle id="104" depart="3250" departLane="best" departSpeed="max" color="red">
 		<route edges="3_0 1_1"/>
	</vehicle>
	<vehicle id="105" depart="3254" departLane="best" departSpeed="max" color="red">
 		<route edges="3_0 1_1"/>
	</vehicle>
	<vehicle id="106" depart="3280" departLane="best" departSpeed="max" color="red">
 		<route edges="3_0 1_1"/>
	</vehicle>
	<vehicle id="107" depart="3282" departLane="best" departSpeed="max" color="red">
 		<route edges="3_0 1_1"/>
	</vehicle>
	<vehicle id="108" depart="3288" departLane="best" departSpeed="max" color="red">
 		<route edges="3_0 1_1"/>
	</vehicle>
	<vehicle id="109" depart="3289" departLane="best" departSpeed="max" color="red">
 		<route edges="3_0 1_1"/>
	</vehicle>
	<vehicle id="110" depart="3297" departLane="best" departSpeed="max" color="red">
 		<route edges="4_0 2_1"/>
	</vehicle>
	<vehicle id="111" depart="3316" departLane="best" departSpeed="max" color="red">
 		<route edges="1_0 2_1"/>
	</vehicle>
	<vehicle id="112" depart="3344" departLane="best" departSpeed="max" color="red">
 		<route edges="4_0 1_1"/>
	</vehicle>
	<vehicle id="113" depart="3348" departLane="best" departSpeed="max" color="red">
 		<route edges="4_0 1_1"/>
	</vehicle>
	<vehicle id="114" depart="3402" departLane="best" departSpeed="max" color="red">
 		<route edges="4_0 1_1"/>
	</vehicle>
	<vehicle id="115" depart="3420" departLane="best" departSpeed="max" color="red">
 		<route edges="3_0 1_1"/>
	</vehicle>
	<vehicle id="116" depart="3430" departLane="best" departSpeed="max" color="red">
 		<route edges="3_0 1_1"/>
	</vehicle>
	<vehicle id="117" depart="3458" departLane="best" departSpeed="max" color="red">
 		<route edges="3_0 1_1"/>
	</vehicle>
	<vehicle id="118" depart="3471" departLane="best" departSpeed="max" color="red">
 		<route edges="3_0 1_1"/>
	</vehicle>
	<vehicle id="119" depart="3478" departLane="best" departSpeed="max" color="red">
 		<route edges="3_0 1_1"/>
	</vehicle>
	<vehicle id="120" depart="3481" departLane="best" departSpeed="max" color="red">
 		<route edges="2_0 4_1"/>
	</vehicle>
	<vehicle id="121" depart="3497" departLane="best" departSpeed="max" color="red">
 		<route edges="2_0 1_1"/>
	</vehicle>
	<vehicle id="122" depart="3506" departLane="best" departSpeed="max" color="red">
 		<route edges="1_0 3_1"/>
	</vehicle>
	<vehicle id="123" depart="3552" departLane="best" departSpeed="max" color="red">
 		<route edges="1_0 3_1"/>
	</vehicle>
	<vehicle id="124" depart="3582" departLane="best" departSpeed="max" color="red">
 		<route edges="1_0 3_1"/>
	</vehicle>
	<vehicle id="125" depart="3586" departLane="best" departSpeed="max" color="red">
 		<route edges="1_0 3_1"/>
	</vehicle>
	<vehicle id="126" depart="3619" departLane="best" departSpeed="max" color="red">
 		<route edges="4_0 1_1"/>
	</vehicle>
	<vehicle id="127" depart="3635" departLane="best" departSpeed="max" color="red">
 		<route edges="3_0 2_1"/>
	</vehicle>
	<vehicle id="128" depart="3636" departLane="best" departSpeed="max" color="red">
 		<route edges="3_0 2_1"/>
	</vehicle>
	<vehicle id="129" depart="3645" departLane="best" departSpeed="max" color="red">
 		<route edges="3_0 1_1"/>
	</vehicle>
	<vehicle id="130" depart="3649" departLane="best" departSpeed="max" color="red">
 		<route edges="3_0 1_1"/>
	</vehicle>
	<vehicle id="131" depart="3655" departLane="best" departSpeed="max" color="red">
 		<route edges="3_0 1_1"/>
	</vehicle>
	<vehicle id="132" depart="3667" departLane="best" departSpeed="max" color="red">
 		<route edges="2_0 3_1"/>
	</vehicle>
	<vehicle id="133" depart="3682" departLane="best" departSpeed="max" color="red">
 		<route edges="1_0 4_1"/>
	</vehicle>
	<vehicle id="134" depart="3744" departLane="best" departSpeed="max" color="red">
 		<route edges="1_0 3_1"/>
	</vehicle>
	<vehicle id="135" depart="3754" departLane="best" departSpeed="max" color="red">
 		<route edges="1_0 3_1"/>
	</vehicle>
	<vehicle id="136" depart="3775" departLane="best" departSpeed="max" color="red">
 		<route edges="1_0 3_1"/>
	</vehicle>
	<vehicle id="137" depart="3787" departLane="best" departSpeed="max" color="red">
 		<route edges="1_0 3_1"/>
	</vehicle>
	<vehicle id="138" depart="3793" departLane="best" departSpeed="max" color="red">
 		<route edges="1_0 3_1"/>
	</vehicle>
	<vehicle id="139" depart="3810" departLane="best" departSpeed="max" color="red">
 		<route edges="1_0 2_1"/>
	</vehicle>
	<vehicle id="140" depart="3811" departLane="best" departSpeed="max" color="red">
 		<route edges="1_0 2_1"/>
	</vehicle>
	<vehicle id="141" depart="3827" departLane="best" departSpeed="max" color="red">
 		<route edges="1_0 2_1"/>
	</vehicle>
	<vehicle id="142" depart="3832" departLane="best" departSpeed="max" color="red">
 		<route edges="2_0 4_1"/>
	</vehicle>
	<vehicle id="143" depart="3837" departLane="best" departSpeed="max" color="red">
 		<route edges="2_0 4_1"/>
	</vehicle>
	<vehicle id="144" depart="3850" departLane="best" departSpeed="max" color="red">
 		<route edges="2_0 4_1"/>
	</vehicle>
	<vehicle id="145" depart="3861" departLane="best" departSpeed="max" color="red">
 		<route edges="2_0 4_1"/>
	</vehicle>
	<vehicle id="146" depart="3870" departLane="best" departSpeed="max" color="red">
 		<route edges="1_0"/>
	</vehicle>
	<vehicle id="147" depart="3901" departLane="best" departSpeed="max" color="red">
 		<route edges="1_0"/>
	</vehicle>
	<vehicle id="148" depart="3917" departLane="best" departSpeed="max" color="red">
 		<route edges="4_0 2_1"/>
	</vehicle>
	<vehicle id="149" depart="3923" departLane="best" departSpeed="max" color="red">
 		<route edges="4_0 1_1"/>
	</vehicle>
	<vehicle id="150" depart="3927" departLane="best" departSpeed="max" color="red">
 		<route edges="4_0 1_1"/>
	</vehicle>
	<vehicle id="151" depart="3940" departLane="best" departSpeed="max" color="red">
 		<route edges="3_0 2_1"/>
	</vehicle>
	<vehicle id="152" depart="3970" departLane="best" departSpeed="max" color="red">
 		<route edges="2_0 4_1"/>
	</vehicle>
	<vehicle id="153" depart="3983" departLane="best" departSpeed="max" color="red">
 		<route edges="2_0 4_1"/>
	</vehicle>
	<vehicle id="154" depart="3985" departLane="best" departSpeed="max" color="red">
 		<route edges="2_0 4_1"/>
	</vehicle>
	<vehicle id="155" depart="4008" departLane="best" departSpeed="max" color="red">
 		<route edges="2_0 3_1"/>
	</vehicle>
	<vehicle id="156" depart="4011" departLane="best" departSpeed="max" color="red">
 		<route edges="2_0 3_1"/>
	</vehicle>
	<vehicle id="157" depart="4015" departLane="best" departSpeed="max" color="red">
 		<route edges="2_0 3_1"/>
	</vehicle>
	<vehicle id="158" depart="4027" departLane="best" departSpeed="max" color="red">
 		<route edges="2_0 3_1"/>
	</vehicle>
	<vehicle id="159" depart="4038" departLane="best" departSpeed="max" color="red">
 		<route edges="1_0 3_1"/>
	</vehicle>
	<vehicle id="160" depart="4046" departLane="best" departSpeed="max" color="red">
 		<route edges="1_0 3_1"/>
	</vehicle>
	<vehicle id="161" depart="4059" departLane="best" departSpeed="max" color="red">
 		<route edges="1_0 3_1"/>
	</vehicle>
	<vehicle id="162" depart="4075" departLane="best" departSpeed="max" color="red">
 		<route edges="1_0 3_1"/>
	</vehicle>
	<vehicle id="163" depart="4101" departLane="best" departSpeed="max" color="red">
 		<route edges="1_0 3_1"/>
	</vehicle>
	<vehicle id="164" depart="4109" departLane="best" departSpeed="max" color="red">
 		<route edges="1_0 3_1"/>
	</vehicle>
	<vehicle id="165" depart="4119" departLane="best" departSpeed="max" color="red">
 		<route edges="3_0 1_1"/>
	</vehicle>
	<vehicle id="166" depart="4129" departLane="best" departSpeed="max" color="red">
 		<route edges="3_0 1_1"/>
	</vehicle>
	<vehicle id="167" depart="4131" departLane="best" departSpeed="max" color="red">
 		<route edges="3_0 1_1"/>
	</vehicle>
	<vehicle id="168" depart="4147" departLane="best" departSpeed="max" color="red">
 		<route edges="3_0 1_1"/>
	</vehicle>
	<vehicle id="169" depart="4154" departLane="best" departSpeed="max" color="red">
 		<route edges="3_0 1_1"/>
	</vehicle>
	<vehicle id="170" depart="4156" departLane="best" departSpeed="max" color="red">
 		<route edges="1_0 2_1"/>
	</vehicle>
	<vehicle id="171" depart="4157" departLane="best" departSpeed="max" color="red">
 		<route edges="1_0 2_1"/>
	</vehicle>
	<vehicle id="172" depart="4202" departLane="best" departSpeed="max" color="red">
 		<route edges="1_0 3_1"/>
	</vehicle>
	<vehicle id="173" depart="4203" departLane="best" departSpeed="max" color="red">
 		<route edges="1_0 3_1"/>
	</vehicle>
	<vehicle id="174" depart="4204" departLane="best" departSpeed="max" color="red">
 		<route edges="2_0 1_1"/>
	</vehicle>
	<vehicle id="175" depart="4210" departLane="best" departSpeed="max" color="red">
 		<route edges="2_0 1_1"/>
	</vehicle>
	<vehicle id="176" depart="4214" departLane="best" departSpeed="max" color="red">
 		<route edges="2_0 1_1"/>
	</vehicle>
	<vehicle id="177" depart="4216" departLane="best" departSpeed="max" color="red">
 		<route edges="2_0 1_1"/>
	</vehicle>
	<vehicle id="178" depart="4221" departLane="best" departSpeed="max" color="red">
 		<route edges="2_0"/>
	</vehicle>
	<vehicle id="179" depart="4240" departLane="best" departSpeed="max" color="red">
 		<route edges="2_0 3_1"/>
	</vehicle>
	<vehicle id="180" depart="4248" departLane="best" departSpeed="max" color="red">
 		<route edges="2_0 4_1"/>
	</vehicle>
	<vehicle id="181" depart="4261" departLane="best" departSpeed="max" color="red">
 		<route edges="2_0 4_1"/>
	</vehicle>
	<vehicle id="182" depart="4277" departLane="best" departSpeed="max" color="red">
 		<route edges="2_0 4_1"/>
	</vehicle>
	<vehicle id="183" depart="4284" departLane="best" departSpeed="max" color="red">
 		<route edges="3_0 2_1"/>
	</vehicle>
	<vehicle id="184" depart="4288" departLane="best" departSpeed="max" color="red">
 		<route edges="3_0 2_1"/>
	</vehicle>
	<vehicle id="185" depart="4296" departLane="best" departSpeed="max" color="red">
 		<route edges="3_0 2_1"/>
	</vehicle>
	<vehicle id="186" depart="4298" departLane="best" departSpeed="max" color="red">
 		<route edges="3_0 2_1"/>
	</vehicle>
	<vehicle id="187" depart="4303" departLane="best" departSpeed="max" color="red">
 		<route edges="3_0 2_1"/>
	</vehicle>
	<vehicle id="188" depart="4321" departLane="best" departSpeed="max" color="red">
 		<route edges="4_0 1_1"/>
	</vehicle>
	<vehicle id="189" depart="4324" departLane="best" departSpeed="max" color="red">
 		<route edges="3_0 1_1"/>
	</vehicle>
	<vehicle id="190" depart="4333" departLane="best" departSpeed="max" color="red">
 		<route edges="3_0 1_1"/>
	</vehicle>
	<vehicle id="191" depart="4335" departLane="best" departSpeed="max" color="red">
 		<route edges="3_0 1_1"/>
	</vehicle>
	<vehicle id="192" depart="4342" departLane="best" departSpeed="max" color="red">
 		<route edges="2_0 4_1"/>
	</vehicle>
	<vehicle id="193" depart="4343" departLane="best" departSpeed="max" color="red">
 		<route edges="2_0 4_1"/>
	</vehicle>
	<vehicle id="194" depart="4359" departLane="best" departSpeed="max" color="red">
 		<route edges="2_0 4_1"/>
	</vehicle>
	<vehicle id="195" depart="4363" departLane="best" departSpeed="max" color="red">
 		<route edges="4_0 2_1"/>
	</vehicle>
	<vehicle id="196" depart="4371" departLane="best" departSpeed="max" color="red">
 		<route edges="4_0 1_1"/>
	</vehicle>
	<vehicle id="197" depart="4377" departLane="best" departSpeed="max" color="red">
 		<route edges="3_0 2_1"/>
	</vehicle>
	<vehicle id="198" depart="4388" departLane="best" departSpeed="max" color="red">
 		<route edges="3_0 2_1"/>
	</vehicle>
	<vehicle id="199" depart="4392" departLane="best" departSpeed="max" color="red">
 		<route edges="3_0 2_1"/>
	</vehicle>
	<vehicle id="200" depart="4405" departLane="best" departSpeed="max" color="red">
 		<route edges="3_0 2_1"/>
	</vehicle>
	<vehicle id="201" depart="4408" departLane="best" departSpeed="max" color="red">
 		<route edges="3_0 2_1"/>
	</vehicle>
	<vehicle id="202" depart="4419" departLane="best" departSpeed="max" color="red">
 		<route edges="3_0 1_1"/>
	</vehicle>
	<vehicle id="203" depart="4423" departLane="best" departSpeed="max" color="red">
 		<route edges="3_0 1_1"/>
	</vehicle>
	<vehicle id="204" depart="4424" departLane="best" departSpeed="max" color="red">
 		<route edges="3_0 1_1"/>
	</vehicle>
	<vehicle id="205" depart="4426" departLane="best" departSpeed="max" color="red">
 		<route edges="4_0 2_1"/>
	</vehicle>
	<vehicle id="206" depart="4433" departLane="best" departSpeed="max" color="red">
 		<route edges="2_0 3_1"/>
	</vehicle>
	<vehicle id="207" depart="4455" departLane="best" departSpeed="max" color="red">
 		<route edges="2_0"/>
	</vehicle>
	<vehicle id="208" depart="4457" departLane="best" departSpeed="max" color="red">
 		<route edges="2_0 1_1"/>
	</vehicle>
	<vehicle id="209" depart="4461" departLane="best" departSpeed="max" color="red">
 		<route edges="2_0 1_1"/>
	</vehicle>
	<vehicle id="210" depart="4462" departLane="best" departSpeed="max" color="red">
 		<route edges="2_0 1_1"/>
	</vehicle>
	<vehicle id="211" depart="4471" departLane="best" departSpeed="max" color="red">
 		<route edges="2_0 1_1"/>
	</vehicle>
	<vehicle id="212" depart="4473" departLane="best" departSpeed="max" color="red">
 		<route edges="1_0 3_1"/>
	</vehicle>
	<vehicle id="213" depart="4474" departLane="best" departSpeed="max" color="red">
 		<route edges="1_0 3_1"/>
	</vehicle>
	<vehicle id="214" depart="4479" departLane="best" departSpeed="max" color="red">
 		<route edges="1_0 2_1"/>
	</vehicle>
	<vehicle id="215" depart="4483" departLane="best" departSpeed="max" color="red">
 		<route edges="1_0 2_1"/>
	</vehicle>
	<vehicle id="216" depart="4486" departLane="best" departSpeed="max" color="red">
 		<route edges="1_0 2_1"/>
	</vehicle>
	<vehicle id="217" depart="4495" departLane="best" departSpeed="max" color="red">
 		<route edges="1_0 2_1"/>
	</vehicle>
	<vehicle id="218" depart="4523" departLane="best" departSpeed="max" color="red">
 		<route edges="4_0 2_1"/>
	</vehicle>
	<vehicle id="219" depart="4532" departLane="best" departSpeed="max" color="red">
 		<route edges="3_0 1_1"/>
	</vehicle>
	<vehicle id="220" depart="4553" departLane="best" departSpeed="max" color="red">
 		<route edges="3_0 1_1"/>
	</vehicle>
	<vehicle id="221" depart="4563" departLane="best" departSpeed="max" color="red">
 		<route edges="3_0 1_1"/>
	</vehicle>
	<vehicle id="222" depart="4597" departLane="best" departSpeed="max" color="red">
 		<route edges="3_0 1_1"/>
	</vehicle>
	<vehicle id="223" depart="4616" departLane="best" departSpeed="max" color="red">
 		<route edges="3_0 1_1"/>
	</vehicle>
	<vehicle id="224" depart="4628" departLane="best" departSpeed="max" color="red">
 		<route edges="3_0 1_1"/>
	</vehicle>
	<vehicle id="225" depart="4632" departLane="best" departSpeed="max" color="red">
 		<route edges="3_0 1_1"/>
	</vehicle>
	<vehicle id="226" depart="4633" departLane="best" departSpeed="max" color="red">
 		<route edges="3_0 1_1"/>
	</vehicle>
	<vehicle id="227" depart="4657" departLane="best" departSpeed="max" color="red">
 		<route edges="2_0 4_1"/>
	</vehicle>
	<vehicle id="228" depart="4660" departLane="best" departSpeed="max" color="red">
 		<route edges="2_0 4_1"/>
	</vehicle>
	<vehicle id="229" depart="4665" departLane="best" departSpeed="max" color="red">
 		<route edges="2_0 1_1"/>
	</vehicle>
	<vehicle id="230" depart="4666" departLane="best" departSpeed="max" color="red">
 		<route edges="2_0 1_1"/>
	</vehicle>
	<vehicle id="231" depart="4676" departLane="best" departSpeed="max" color="red">
 		<route edges="2_0 1_1"/>
	</vehicle>
	<vehicle id="232" depart="4691" departLane="best" departSpeed="max" color="red">
 		<route edges="1_0 3_1"/>
	</vehicle>
	<vehicle id="233" depart="4745" departLane="best" departSpeed="max" color="red">
 		<route edges="1_0 3_1"/>
	</vehicle>
	<vehicle id="234" depart="4760" departLane="best" departSpeed="max" color="red">
 		<route edges="1_0 3_1"/>
	</vehicle>
	<vehicle id="235" depart="4764" departLane="best" departSpeed="max" color="red">
 		<route edges="1_0 3_1"/>
	</vehicle>
	<vehicle id="236" depart="4769" departLane="best" departSpeed="max" color="red">
 		<route edges="1_0 3_1"/>
	</vehicle>
	<vehicle id="237" depart="4771" departLane="best" departSpeed="max" color="red">
 		<route edges="1_0 2_1"/>
	</vehicle>
	<vehicle id="238" depart="4774" departLane="best" departSpeed="max" color="red">
 		<route edges="1_0 2_1"/>
	</vehicle>
	<vehicle id="239" depart="4778" departLane="best" departSpeed="max" color="red">
 		<route edges="1_0 2_1"/>
	</vehicle>
	<vehicle id="240" depart="4779" departLane="best" departSpeed="max" color="red">
 		<route edges="1_0 2_1"/>
	</vehicle>
	<vehicle id="241" depart="4797" departLane="best" departSpeed="max" color="red">
 		<route edges="4_0 1_1"/>
	</vehicle>
	<vehicle id="242" depart="4803" departLane="best" departSpeed="max" color="red">
 		<route edges="1_0 2_1"/>
	</vehicle>
	<vehicle id="243" depart="4804" departLane="best" departSpeed="max" color="red">
 		<route edges="1_0 2_1"/>
	</vehicle>
	<vehicle id="244" depart="4814" departLane="best" departSpeed="max" color="red">
 		<route edges="1_0 2_1"/>
	</vehicle>
	<vehicle id="245" depart="4844" departLane="best" departSpeed="max" color="red">