<?xml version="1.0" encoding="UTF-8"?>

<!-- generated on 2022-06-22 09:21:37 by Eclipse SUMO netedit Version 1.13.0
<configuration xmlns:xsi="http://www.w3.org/2001/XMLSchema-instance" xsi:noNamespaceSchemaLocation="http://sumo.dlr.de/xsd/netconvertConfiguration.xsd">

    <input>
        <sumo-net-file value="C:\Users\tugba\OneDrive\Masaüstü\Yeni%20klasör\KİLİS7902\kilis.net.xml"/>
    </input>

    <output>
        <output-file value="C:\Users\tugba\OneDrive\Masaüstü\Yeni%20klasör\KİLİS7902\kilis.net.xml"/>
    </output>

    <processing>
        <geometry.min-radius.fix.railways value="false"/>
        <geometry.max-grade.fix value="false"/>
        <offset.disable-normalization value="true"/>
        <lefthand value="false"/>
    </processing>

    <junctions>
        <no-turnarounds value="true"/>
        <junctions.corner-detail value="5"/>
        <junctions.limit-turn-speed value="5.5"/>
        <rectangular-lane-cut value="false"/>
    </junctions>

    <pedestrian>
        <walkingareas value="false"/>
    </pedestrian>

    <report>
        <aggregate-warnings value="5"/>
    </report>

</configuration>
-->

<net version="1.9" junctionCornerDetail="5" limitTurnSpeed="5.50" xmlns:xsi="http://www.w3.org/2001/XMLSchema-instance" xsi:noNamespaceSchemaLocation="http://sumo.dlr.de/xsd/net_file.xsd">

    <location netOffset="0.00,0.00" convBoundary="-56.35,-53.11,157.69,155.52" origBoundary="-10000000000.00,-10000000000.00,10000000000.00,10000000000.00" projParameter="!"/>

    <edge id=":J0_0" function="internal">
        <lane id=":J0_0_0" index="0" speed="6.51" length="9.23" shape="56.11,60.68 53.63,60.50 51.69,61.20 50.31,62.78 49.47,65.23"/>
    </edge>
    <edge id=":J0_1" function="internal">
        <lane id=":J0_1_0" index="0" speed="13.89" length="21.09" shape="56.11,60.68 50.16,59.38 45.85,58.54 41.52,57.86 35.49,57.05"/>
        <lane id=":J0_1_1" index="1" speed="13.89" length="21.09" shape="56.80,57.55 50.81,56.25 46.41,55.39 41.98,54.70 35.90,53.88"/>
    </edge>
    <edge id=":J0_3" function="internal">
        <lane id=":J0_3_0" index="0" speed="9.31" length="4.96" shape="56.80,57.55 52.15,55.81"/>
    </edge>
    <edge id=":J0_16" function="internal">
        <lane id=":J0_16_0" index="0" speed="9.31" length="14.51" shape="52.15,55.81 51.76,55.67 48.52,52.66 47.08,48.52 47.43,43.24"/>
    </edge>
    <edge id=":J0_4" function="internal">
        <lane id=":J0_4_0" index="0" speed="6.58" length="9.21" shape="53.69,44.58 53.53,47.05 54.23,48.99 55.78,50.41 58.19,51.30"/>
    </edge>
    <edge id=":J0_5" function="internal">
        <lane id=":J0_5_0" index="0" speed="13.89" length="21.10" shape="53.69,44.58 49.47,65.23"/>
        <lane id=":J0_5_1" index="1" speed="13.89" length="21.10" shape="50.56,43.91 46.33,64.62"/>
    </edge>
    <edge id=":J0_7" function="internal">
        <lane id=":J0_7_0" index="0" speed="9.66" length="4.62" shape="50.56,43.91 48.95,48.24"/>
    </edge>
    <edge id=":J0_17" function="internal">
        <lane id=":J0_17_0" index="0" speed="9.66" length="15.25" shape="48.95,48.24 48.72,48.87 45.66,52.19 41.39,53.85 35.90,53.88"/>
    </edge>
    <edge id=":J0_8" function="internal">
        <lane id=":J0_8_0" index="0" speed="7.05" length="10.13" shape="36.74,47.53 39.58,47.53 41.79,46.71 43.36,45.06 44.30,42.57"/>
    </edge>
    <edge id=":J0_9" function="internal">
        <lane id=":J0_9_0" index="0" speed="13.89" length="21.65" shape="36.74,47.53 42.90,48.37 47.52,49.09 52.11,49.98 58.19,51.30"/>
        <lane id=":J0_9_1" index="1" speed="13.89" length="21.65" shape="36.32,50.70 42.44,51.53 46.96,52.24 51.46,53.12 57.49,54.43"/>
    </edge>
    <edge id=":J0_11" function="internal">
        <lane id=":J0_11_0" index="0" speed="9.16" length="5.10" shape="36.32,50.70 41.23,52.08"/>
    </edge>
    <edge id=":J0_18" function="internal">
        <lane id=":J0_18_0" index="0" speed="9.16" length="14.73" shape="41.23,52.08 41.60,52.19 45.03,55.00 46.60,59.14 46.33,64.62"/>
    </edge>
    <edge id=":J0_12" function="internal">
        <lane id=":J0_12_0" index="0" speed="6.38" length="9.04" shape="40.05,63.39 40.17,60.89 39.45,59.01 37.89,57.72 35.49,57.05"/>
    </edge>
    <edge id=":J0_13" function="internal">
        <lane id=":J0_13_0" index="0" speed="13.89" length="21.22" shape="40.05,63.39 44.30,42.57"/>
        <lane id=":J0_13_1" index="1" speed="13.89" length="21.22" shape="43.19,64.00 47.43,43.24"/>
    </edge>
    <edge id=":J0_15" function="internal">
        <lane id=":J0_15_0" index="0" speed="9.26" length="5.33" shape="43.19,64.00 44.93,58.96"/>
    </edge>
    <edge id=":J0_19" function="internal">
        <lane id=":J0_19_0" index="0" speed="9.26" length="14.41" shape="44.93,58.96 44.98,58.82 47.96,55.50 52.13,54.03 57.49,54.43"/>
    </edge>

    <edge id="1_0" from="J1" to="J0" priority="-1">
        <lane id="1_0_0" index="0" speed="13.89" length="98.87" shape="74.36,-52.11 53.69,44.58"/>
        <lane id="1_0_1" index="1" speed="13.89" length="98.87" shape="71.23,-52.78 50.56,43.91"/>
    </edge>
    <edge id="1_1" from="J0" to="J1" priority="-1">
        <lane id="1_1_0" index="0" speed="13.89" length="98.87" shape="44.30,42.57 64.98,-54.11"/>
        <lane id="1_1_1" index="1" speed="13.89" length="98.87" shape="47.43,43.24 68.11,-53.44"/>
    </edge>
    <edge id="2_0" from="J2" to="J0" priority="-1">
        <lane id="2_0_0" index="0" speed="13.89" length="102.99" shape="156.65,83.00 56.11,60.68"/>
        <lane id="2_0_1" index="1" speed="13.89" length="102.99" shape="157.34,79.87 56.80,57.55"/>
    </edge>
    <edge id="2_1" from="J0" to="J2" priority="-1">
        <lane id="2_1_0" index="0" speed="13.89" length="102.99" shape="58.19,51.30 158.73,73.62"/>
        <lane id="2_1_1" index="1" speed="13.89" length="102.99" shape="57.49,54.43 158.04,76.75"/>
    </edge>
    <edge id="3_0" from="J3" to="J0" priority="-1">
        <lane id="3_0_0" index="0" speed="13.89" length="92.93" shape="22.26,154.60 40.05,63.39"/>
        <lane id="3_0_1" index="1" speed="13.89" length="92.93" shape="25.40,155.21 43.19,64.00"/>
    </edge>
    <edge id="3_1" from="J0" to="J3" priority="-1">
        <lane id="3_1_0" index="0" speed="13.89" length="92.93" shape="49.47,65.23 31.68,156.44"/>
        <lane id="3_1_1" index="1" speed="13.89" length="92.93" shape="46.33,64.62 28.54,155.83"/>
    </edge>
    <edge id="4_0" from="J4" to="J0" priority="-1">
        <lane id="4_0_0" index="0" speed="13.89" length="93.26" shape="-55.72,35.37 36.74,47.53"/>
        <lane id="4_0_1" index="1" speed="13.89" length="93.26" shape="-56.14,38.54 36.32,50.70"/>
    </edge>
    <edge id="4_1" from="J0" to="J4" priority="-1">
        <lane id="4_1_0" index="0" speed="13.89" length="93.26" shape="35.49,57.05 -56.98,44.89"/>
        <lane id="4_1_1" index="1" speed="13.89" length="93.26" shape="35.90,53.88 -56.56,41.72"/>
    </edge>
 
 
    <tlLogic id="J0" type="delay_based" programID="1" offset="0">
        <param key="detectorRange" value="250" />	
		<param key="minTimeLoss" value="1" />
		<param key="file" value="NULL"/>
		<param key="freq" value="300"/>
        <param key="show-detectors" value="false"/>
      <phase duration="42" state="rrrrGGGgrrrrGGGg" minDur="10" maxDur="60"/>
      <phase duration="3"  state="rrrryyyyrrrryyyy"/>
      <phase duration="42" state="GGGgrrrrGGGgrrrr" minDur="10" maxDur="60"/>
      <phase duration="3"  state="yyyyrrrryyyyrrrr"/>
    </tlLogic>

    <junction id="J0" type="traffic_light" x="46.83" y="53.70" incLanes="2_0_0 2_0_1 1_0_0 1_0_1 4_0_0 4_0_1 3_0_0 3_0_1" intLanes=":J0_0_0 :J0_1_0 :J0_1_1 :J0_16_0 :J0_4_0 :J0_5_0 :J0_5_1 :J0_17_0 :J0_8_0 :J0_9_0 :J0_9_1 :J0_18_0 :J0_12_0 :J0_13_0 :J0_13_1 :J0_19_0" shape="55.76,62.24 58.53,49.74 56.34,48.80 55.65,48.08 55.25,47.19 55.11,46.14 55.25,44.92 42.74,42.24 41.68,44.58 40.82,45.34 39.75,45.82 38.46,46.02 36.95,45.95 35.28,58.64 37.40,59.36 38.06,60.01 38.46,60.84 38.60,61.87 38.48,63.08 51.04,65.53 51.93,63.32 52.63,62.63 53.50,62.22 54.54,62.09">
        <request index="0"  response="0000000001100000" foes="0000000001100000" cont="0"/>
        <request index="1"  response="1111000011100000" foes="1111100011100000" cont="0"/>
        <request index="2"  response="1111000011100000" foes="1111100011100000" cont="0"/>
        <request index="3"  response="1110011011100000" foes="1110011011100000" cont="1"/>
        <request index="4"  response="0000000000000000" foes="0000011000000000" cont="0"/>
        <request index="5"  response="0000100000001000" foes="1000111000001111" cont="0"/>
        <request index="6"  response="0000100000001000" foes="1000111000001111" cont="0"/>
        <request index="7"  response="0110100000001000" foes="0110111000001110" cont="1"/>
        <request index="8"  response="0110000000000000" foes="0110000000000000" cont="0"/>
        <request index="9"  response="1110000011110000" foes="1110000011111000" cont="0"/>
        <request index="10" response="1110000011110000" foes="1110000011111000" cont="0"/>
        <request index="11" response="1110000011100110" foes="1110000011100110" cont="1"/>
        <request index="12" response="0000000000000000" foes="0000000000000110" cont="0"/>
        <request index="13" response="0000100000001000" foes="0000111110001110" cont="0"/>
        <request index="14" response="0000100000001000" foes="0000111110001110" cont="0"/>
        <request index="15" response="0000100001101000" foes="0000111001101110" cont="1"/>
    </junction>
    <junction id="J1" type="dead_end" x="69.67" y="-53.11" incLanes="1_1_0 1_1_1" intLanes="" shape="69.67,-53.11 63.41,-54.45 69.67,-53.11"/>
    <junction id="J2" type="dead_end" x="157.69" y="78.31" incLanes="2_1_0 2_1_1" intLanes="" shape="157.69,78.31 159.08,72.06 157.69,78.31"/>
    <junction id="J3" type="dead_end" x="26.97" y="155.52" incLanes="3_1_0 3_1_1" intLanes="" shape="26.97,155.52 33.25,156.75 26.97,155.52"/>
    <junction id="J4" type="dead_end" x="-56.35" y="40.13" incLanes="4_1_0 4_1_1" intLanes="" shape="-56.35,40.13 -57.18,46.48 -56.35,40.13"/>

    <junction id=":J0_16_0" type="internal" x="52.15" y="55.81" incLanes=":J0_3_0 4_0_0 4_0_1" intLanes=":J0_5_0 :J0_5_1 :J0_7_0 :J0_8_0 :J0_9_0 :J0_9_1 :J0_13_0 :J0_13_1 :J0_15_0"/>
    <junction id=":J0_17_0" type="internal" x="48.95" y="48.24" incLanes=":J0_7_0 3_0_0 3_0_1" intLanes=":J0_1_0 :J0_1_1 :J0_3_0 :J0_9_0 :J0_9_1 :J0_11_0 :J0_12_0 :J0_13_0 :J0_13_1"/>
    <junction id=":J0_18_0" type="internal" x="41.23" y="52.08" incLanes=":J0_11_0 2_0_0 2_0_1" intLanes=":J0_0_0 :J0_1_0 :J0_1_1 :J0_5_0 :J0_5_1 :J0_7_0 :J0_13_0 :J0_13_1 :J0_15_0"/>
    <junction id=":J0_19_0" type="internal" x="44.93" y="58.96" incLanes=":J0_15_0 1_0_0 1_0_1" intLanes=":J0_1_0 :J0_1_1 :J0_3_0 :J0_4_0 :J0_5_0 :J0_5_1 :J0_9_0 :J0_9_1 :J0_11_0"/>

    <connection from="1_0" to="2_1" fromLane="0" toLane="0" via=":J0_4_0" tl="J0" linkIndex="4" dir="r" state="O"/>
    <connection from="1_0" to="3_1" fromLane="0" toLane="0" via=":J0_5_0" tl="J0" linkIndex="5" dir="s" state="O"/>
    <connection from="1_0" to="3_1" fromLane="1" toLane="1" via=":J0_5_1" tl="J0" linkIndex="6" dir="s" state="O"/>
    <connection from="1_0" to="4_1" fromLane="1" toLane="1" via=":J0_7_0" tl="J0" linkIndex="7" dir="l" state="o"/>
    <connection from="2_0" to="3_1" fromLane="0" toLane="0" via=":J0_0_0" tl="J0" linkIndex="0" dir="r" state="o"/>
    <connection from="2_0" to="4_1" fromLane="0" toLane="0" via=":J0_1_0" tl="J0" linkIndex="1" dir="s" state="o"/>
    <connection from="2_0" to="4_1" fromLane="1" toLane="1" via=":J0_1_1" tl="J0" linkIndex="2" dir="s" state="o"/>
    <connection from="2_0" to="1_1" fromLane="1" toLane="1" via=":J0_3_0" tl="J0" linkIndex="3" dir="l" state="o"/>
    <connection from="3_0" to="4_1" fromLane="0" toLane="0" via=":J0_12_0" tl="J0" linkIndex="12" dir="r" state="O"/>
    <connection from="3_0" to="1_1" fromLane="0" toLane="0" via=":J0_13_0" tl="J0" linkIndex="13" dir="s" state="O"/>
    <connection from="3_0" to="1_1" fromLane="1" toLane="1" via=":J0_13_1" tl="J0" linkIndex="14" dir="s" state="O"/>
    <connection from="3_0" to="2_1" fromLane="1" toLane="1" via=":J0_15_0" tl="J0" linkIndex="15" dir="l" state="o"/>
    <connection from="4_0" to="1_1" fromLane="0" toLane="0" via=":J0_8_0" tl="J0" linkIndex="8" dir="r" state="o"/>
    <connection from="4_0" to="2_1" fromLane="0" toLane="0" via=":J0_9_0" tl="J0" linkIndex="9" dir="s" state="o"/>
    <connection from="4_0" to="2_1" fromLane="1" toLane="1" via=":J0_9_1" tl="J0" linkIndex="10" dir="s" state="o"/>
    <connection from="4_0" to="3_1" fromLane="1" toLane="1" via=":J0_11_0" tl="J0" linkIndex="11" dir="l" state="o"/>

    <connection from=":J0_0" to="3_1" fromLane="0" toLane="0" dir="r" state="M"/>
    <connection from=":J0_1" to="4_1" fromLane="0" toLane="0" dir="s" state="M"/>
    <connection from=":J0_1" to="4_1" fromLane="1" toLane="1" dir="s" state="M"/>
    <connection from=":J0_3" to="1_1" fromLane="0" toLane="1" via=":J0_16_0" dir="l" state="m"/>
    <connection from=":J0_16" to="1_1" fromLane="0" toLane="1" dir="l" state="M"/>
    <connection from=":J0_4" to="2_1" fromLane="0" toLane="0" dir="r" state="M"/>
    <connection from=":J0_5" to="3_1" fromLane="0" toLane="0" dir="s" state="M"/>
    <connection from=":J0_5" to="3_1" fromLane="1" toLane="1" dir="s" state="M"/>
    <connection from=":J0_7" to="4_1" fromLane="0" toLane="1" via=":J0_17_0" dir="l" state="m"/>
    <connection from=":J0_17" to="4_1" fromLane="0" toLane="1" dir="l" state="M"/>
    <connection from=":J0_8" to="1_1" fromLane="0" toLane="0" dir="r" state="M"/>
    <connection from=":J0_9" to="2_1" fromLane="0" toLane="0" dir="s" state="M"/>
    <connection from=":J0_9" to="2_1" fromLane="1" toLane="1" dir="s" state="M"/>
    <connection from=":J0_11" to="3_1" fromLane="0" toLane="1" via=":J0_18_0" dir="l" state="m"/>
    <connection from=":J0_18" to="3_1" fromLane="0" toLane="1" dir="l" state="M"/>
    <connection from=":J0_12" to="4_1" fromLane="0" toLane="0" dir="r" state="M"/>
    <connection from=":J0_13" to="1_1" fromLane="0" toLane="0" dir="s" state="M"/>
    <connection from=":J0_13" to="1_1" fromLane="1" toLane="1" dir="s" state="M"/>
    <connection from=":J0_15" to="2_1" fromLane="0" toLane="1" via=":J0_19_0" dir="l" state="m"/>
    <connection from=":J0_19" to="2_1" fromLane="0" toLane="1" dir="l" state="M"/>

</net>
