<?xml version='1.0' encoding='UTF-8'?>
<routes xmlns:xsi="http://www.w3.org/2001/XMLSchema-instance" xsi:noNamespaceSchemaLocation="http://sumo.dlr.de/xsd/routes_file.xsd">
	<vehicle id="0" depart="2" departLane="best" departSpeed="max" color="red">
 		<route edges="4_0 1_1"/>
	</vehicle>
	<vehicle id="1" depart="2" departLane="best" departSpeed="max" color="red">
 		<route edges="4_0 1_1"/>
	</vehicle>
	<vehicle id="2" depart="2" departLane="best" departSpeed="max" color="red">
 		<route edges="4_0 1_1"/>
	</vehicle>
	<vehicle id="3" depart="2" departLane="best" departSpeed="max" color="red">
 		<route edges="4_0 1_1"/>
	</vehicle>
	<vehicle id="4" depart="10" departLane="best" departSpeed="max" color="red">
 		<route edges="4_0 2_1"/>
	</vehicle>
	<vehicle id="5" depart="10" departLane="best" departSpeed="max" color="red">
 		<route edges="4_0 2_1"/>
	</vehicle>
	<vehicle id="6" depart="10" departLane="best" departSpeed="max" color="red">
 		<route edges="4_0 2_1"/>
	</vehicle>
	<vehicle id="7" depart="10" departLane="best" departSpeed="max" color="red">
 		<route edges="4_0 2_1"/>
	</vehicle>
	<vehicle id="8" depart="22" departLane="best" departSpeed="max" color="red">
 		<route edges="3_0 2_1"/>
	</vehicle>
	<vehicle id="9" depart="22" departLane="best" departSpeed="max" color="red">
 		<route edges="3_0 2_1"/>
	</vehicle>
	<vehicle id="10" depart="22" departLane="best" departSpeed="max" color="red">
 		<route edges="3_0 2_1"/>
	</vehicle>
	<vehicle id="11" depart="22" departLane="best" departSpeed="max" color="red">
 		<route edges="3_0 2_1"/>
	</vehicle>
	<vehicle id="12" depart="24" departLane="best" departSpeed="max" color="red">
 		<route edges="3_0 4_1"/>
	</vehicle>
	<vehicle id="13" depart="30" departLane="best" departSpeed="max" color="red">
 		<route edges="1_0 2_1"/>
	</vehicle>
	<vehicle id="14" depart="30" departLane="best" departSpeed="max" color="red">
 		<route edges="1_0 2_1"/>
	</vehicle>
	<vehicle id="15" depart="30" departLane="best" departSpeed="max" color="red">
 		<route edges="1_0 2_1"/>
	</vehicle>
	<vehicle id="16" depart="30" departLane="best" departSpeed="max" color="red">
 		<route edges="1_0 2_1"/>
	</vehicle>
	<vehicle id="17" depart="30" departLane="best" departSpeed="max" color="red">
 		<route edges="1_0 2_1"/>
	</vehicle>
	<vehicle id="18" depart="30" departLane="best" departSpeed="max" color="red">
 		<route edges="1_0 2_1"/>
	</vehicle>
	<vehicle id="19" depart="30" departLane="best" departSpeed="max" color="red">
 		<route edges="1_0 2_1"/>
	</vehicle>
	<vehicle id="20" depart="30" departLane="best" departSpeed="max" color="red">
 		<route edges="1_0 2_1"/>
	</vehicle>
	<vehicle id="21" depart="30" departLane="best" departSpeed="max" color="red">
 		<route edges="1_0 2_1"/>
	</vehicle>
	<vehicle id="22" depart="30" departLane="best" departSpeed="max" color="red">
 		<route edges="1_0 2_1"/>
	</vehicle>
	<vehicle id="23" depart="40" departLane="best" departSpeed="max" color="red">
 		<route edges="1_0 4_1"/>
	</vehicle>
	<vehicle id="24" depart="40" departLane="best" departSpeed="max" color="red">
 		<route edges="1_0 4_1"/>
	</vehicle>
	<vehicle id="25" depart="40" departLane="best" departSpeed="max" color="red">
 		<route edges="1_0 4_1"/>
	</vehicle>
	<vehicle id="26" depart="47" departLane="best" departSpeed="max" color="red">
 		<route edges="2_0 1_1"/>
	</vehicle>
	<vehicle id="27" depart="52" departLane="best" departSpeed="max" color="red">
 		<route edges="2_0 3_1"/>
	</vehicle>
	<vehicle id="28" depart="52" departLane="best" departSpeed="max" color="red">
 		<route edges="2_0 3_1"/>
	</vehicle>
	<vehicle id="29" depart="52" departLane="best" departSpeed="max" color="red">
 		<route edges="2_0 3_1"/>
	</vehicle>
	<vehicle id="30" depart="52" departLane="best" departSpeed="max" color="red">
 		<route edges="2_0 3_1"/>
	</vehicle>
	<vehicle id="31" depart="52" departLane="best" departSpeed="max" color="red">
 		<route edges="2_0 3_1"/>
	</vehicle>
	<vehicle id="32" depart="52" departLane="best" departSpeed="max" color="red">
 		<route edges="2_0 3_1"/>
	</vehicle>
	<vehicle id="33" depart="52" departLane="best" departSpeed="max" color="red">
 		<route edges="2_0 3_1"/>
	</vehicle>
	<vehicle id="34" depart="52" departLane="best" departSpeed="max" color="red">
 		<route edges="2_0 3_1"/>
	</vehicle>
	<vehicle id="35" depart="61" departLane="best" departSpeed="max" color="red">
 		<route edges="2_0 4_1"/>
	</vehicle>
	<vehicle id="36" depart="61" departLane="best" departSpeed="max" color="red">
 		<route edges="2_0 4_1"/>
	</vehicle>
	<vehicle id="37" depart="61" departLane="best" departSpeed="max" color="red">
 		<route edges="2_0 4_1"/>
	</vehicle>
	<vehicle id="38" depart="61" departLane="best" departSpeed="max" color="red">
 		<route edges="2_0 4_1"/>
	</vehicle>
	<vehicle id="39" depart="61" departLane="best" departSpeed="max" color="red">
 		<route edges="2_0 4_1"/>
	</vehicle>
	<vehicle id="40" depart="61" departLane="best" departSpeed="max" color="red">
 		<route edges="2_0 4_1"/>
	</vehicle>
	<vehicle id="41" depart="61" departLane="best" departSpeed="max" color="red">
 		<route edges="2_0 4_1"/>
	</vehicle>
	<vehicle id="42" depart="61" departLane="best" departSpeed="max" color="red">
 		<route edges="2_0 4_1"/>
	</vehicle>
	<vehicle id="43" depart="61" departLane="best" departSpeed="max" color="red">
 		<route edges="2_0 4_1"/>
	</vehicle>
	<vehicle id="44" depart="65" departLane="best" departSpeed="max" color="red">
 		<route edges="3_0 1_1"/>
	</vehicle>
	<vehicle id="45" depart="65" departLane="best" departSpeed="max" color="red">
 		<route edges="3_0 1_1"/>
	</vehicle>
	<vehicle id="46" depart="65" departLane="best" departSpeed="max" color="red">
 		<route edges="3_0 1_1"/>
	</vehicle>
	<vehicle id="47" depart="65" departLane="best" departSpeed="max" color="red">
 		<route edges="3_0 1_1"/>
	</vehicle>
	<vehicle id="48" depart="65" departLane="best" departSpeed="max" color="red">
 		<route edges="3_0 1_1"/>
	</vehicle>
	<vehicle id="49" depart="65" departLane="best" departSpeed="max" color="red">
 		<route edges="3_0 1_1"/>
	</vehicle>
	<vehicle id="50" depart="65" departLane="best" departSpeed="max" color="red">
 		<route edges="3_0 1_1"/>
	</vehicle>
	<vehicle id="51" depart="65" departLane="best" departSpeed="max" color="red">
 		<route edges="3_0 1_1"/>
	</vehicle>
	<vehicle id="52" depart="65" departLane="best" departSpeed="max" color="red">
 		<route edges="3_0 1_1"/>
	</vehicle>
	<vehicle id="53" depart="66" departLane="best" departSpeed="max" color="red">
 		<route edges="1_0 3_1"/>
	</vehicle>
	<vehicle id="54" depart="66" departLane="best" departSpeed="max" color="red">
 		<route edges="1_0 3_1"/>
	</vehicle>
	<vehicle id="55" depart="66" departLane="best" departSpeed="max" color="red">
 		<route edges="1_0 3_1"/>
	</vehicle>
	<vehicle id="56" depart="66" departLane="best" departSpeed="max" color="red">
 		<route edges="1_0 3_1"/>
	</vehicle>
	<vehicle id="57" depart="66" departLane="best" departSpeed="max" color="red">
 		<route edges="1_0 3_1"/>
	</vehicle>
	<vehicle id="58" depart="66" departLane="best" departSpeed="max" color="red">
 		<route edges="1_0 3_1"/>
	</vehicle>
	<vehicle id="59" depart="66" departLane="best" departSpeed="max" color="red">
 		<route edges="1_0 3_1"/>
	</vehicle>
	<vehicle id="60" depart="312" departLane="best" departSpeed="max" color="red">
 		<route edges="3_0 4_1"/>
	</vehicle>
	<vehicle id="61" depart="315" departLane="best" departSpeed="max" color="red">
 		<route edges="3_0 2_1"/>
	</vehicle>
	<vehicle id="62" depart="315" departLane="best" departSpeed="max" color="red">
 		<route edges="3_0 2_1"/>
	</vehicle>
	<vehicle id="63" depart="315" departLane="best" departSpeed="max" color="red">
 		<route edges="3_0 2_1"/>
	</vehicle>
	<vehicle id="64" depart="315" departLane="best" departSpeed="max" color="red">
 		<route edges="3_0 2_1"/>
	</vehicle>
	<vehicle id="65" depart="315" departLane="best" departSpeed="max" color="red">
 		<route edges="3_0 2_1"/>
	</vehicle>
	<vehicle id="66" depart="315" departLane="best" departSpeed="max" color="red">
 		<route edges="3_0 2_1"/>
	</vehicle>
	<vehicle id="67" depart="315" departLane="best" departSpeed="max" color="red">
 		<route edges="3_0 2_1"/>
	</vehicle>
	<vehicle id="68" depart="315" departLane="best" departSpeed="max" color="red">
 		<route edges="3_0 2_1"/>
	</vehicle>
	<vehicle id="69" depart="315" departLane="best" departSpeed="max" color="red">
 		<route edges="3_0 2_1"/>
	</vehicle>
	<vehicle id="70" depart="315" departLane="best" departSpeed="max" color="red">
 		<route edges="3_0 2_1"/>
	</vehicle>
	<vehicle id="71" depart="315" departLane="best" departSpeed="max" color="red">
 		<route edges="3_0 2_1"/>
	</vehicle>
	<vehicle id="72" depart="318" departLane="best" departSpeed="max" color="red">
 		<route edges="4_0 2_1"/>
	</vehicle>
	<vehicle id="73" depart="318" departLane="best" departSpeed="max" color="red">
 		<route edges="4_0 2_1"/>
	</vehicle>
	<vehicle id="74" depart="318" departLane="best" departSpeed="max" color="red">
 		<route edges="4_0 2_1"/>
	</vehicle>
	<vehicle id="75" depart="318" departLane="best" departSpeed="max" color="red">
 		<route edges="4_0 2_1"/>
	</vehicle>
	<vehicle id="76" depart="318" departLane="best" departSpeed="max" color="red">
 		<route edges="4_0 2_1"/>
	</vehicle>
	<vehicle id="77" depart="323" departLane="best" departSpeed="max" color="red">
 		<route edges="3_0 1_1"/>
	</vehicle>
	<vehicle id="78" depart="323" departLane="best" departSpeed="max" color="red">
 		<route edges="3_0 1_1"/>
	</vehicle>
	<vehicle id="79" depart="323" departLane="best" departSpeed="max" color="red">
 		<route edges="3_0 1_1"/>
	</vehicle>
	<vehicle id="80" depart="323" departLane="best" departSpeed="max" color="red">
 		<route edges="3_0 1_1"/>
	</vehicle>
	<vehicle id="81" depart="323" departLane="best" departSpeed="max" color="red">
 		<route edges="3_0 1_1"/>
	</vehicle>
	<vehicle id="82" depart="323" departLane="best" departSpeed="max" color="red">
 		<route edges="3_0 1_1"/>
	</vehicle>
	<vehicle id="83" depart="328" departLane="best" departSpeed="max" color="red">
 		<route edges="4_0 1_1"/>
	</vehicle>
	<vehicle id="84" depart="342" departLane="best" departSpeed="max" color="red">
 		<route edges="2_0 4_1"/>
	</vehicle>
	<vehicle id="85" depart="342" departLane="best" departSpeed="max" color="red">
 		<route edges="2_0 4_1"/>
	</vehicle>
	<vehicle id="86" depart="342" departLane="best" departSpeed="max" color="red">
 		<route edges="2_0 4_1"/>
	</vehicle>
	<vehicle id="87" depart="342" departLane="best" departSpeed="max" color="red">
 		<route edges="2_0 4_1"/>
	</vehicle>
	<vehicle id="88" depart="342" departLane="best" departSpeed="max" color="red">
 		<route edges="2_0 4_1"/>
	</vehicle>
	<vehicle id="89" depart="342" departLane="best" departSpeed="max" color="red">
 		<route edges="2_0 4_1"/>
	</vehicle>
	<vehicle id="90" depart="342" departLane="best" departSpeed="max" color="red">
 		<route edges="2_0 4_1"/>
	</vehicle>
	<vehicle id="91" depart="342" departLane="best" departSpeed="max" color="red">
 		<route edges="2_0 4_1"/>
	</vehicle>
	<vehicle id="92" depart="342" departLane="best" departSpeed="max" color="red">
 		<route edges="2_0 4_1"/>
	</vehicle>
	<vehicle id="93" depart="342" departLane="best" departSpeed="max" color="red">
 		<route edges="2_0 4_1"/>
	</vehicle>
	<vehicle id="94" depart="342" departLane="best" departSpeed="max" color="red">
 		<route edges="2_0 4_1"/>
	</vehicle>
	<vehicle id="95" depart="342" departLane="best" departSpeed="max" color="red">
 		<route edges="2_0 4_1"/>
	</vehicle>
	<vehicle id="96" depart="342" departLane="best" departSpeed="max" color="red">
 		<route edges="2_0 4_1"/>
	</vehicle>
	<vehicle id="97" depart="342" departLane="best" departSpeed="max" color="red">
 		<route edges="2_0 4_1"/>
	</vehicle>
	<vehicle id="98" depart="342" departLane="best" departSpeed="max" color="red">
 		<route edges="2_0 4_1"/>
	</vehicle>
	<vehicle id="99" depart="342" departLane="best" departSpeed="max" color="red">
 		<route edges="2_0 4_1"/>
	</vehicle>
	<vehicle id="100" depart="342" departLane="best" departSpeed="max" color="red">
 		<route edges="2_0 4_1"/>
	</vehicle>
	<vehicle id="101" depart="344" departLane="best" departSpeed="max" color="red">
 		<route edges="1_0 4_1"/>
	</vehicle>
	<vehicle id="102" depart="353" departLane="best" departSpeed="max" color="red">
 		<route edges="2_0 1_1"/>
	</vehicle>
	<vehicle id="103" depart="353" departLane="best" departSpeed="max" color="red">
 		<route edges="2_0 1_1"/>
	</vehicle>
	<vehicle id="104" depart="353" departLane="best" departSpeed="max" color="red">
 		<route edges="2_0 1_1"/>
	</vehicle>
	<vehicle id="105" depart="353" departLane="best" departSpeed="max" color="red">
 		<route edges="2_0 1_1"/>
	</vehicle>
	<vehicle id="106" depart="353" departLane="best" departSpeed="max" color="red">
 		<route edges="2_0 1_1"/>
	</vehicle>
	<vehicle id="107" depart="353" departLane="best" departSpeed="max" color="red">
 		<route edges="2_0 1_1"/>
	</vehicle>
	<vehicle id="108" depart="354" departLane="best" departSpeed="max" color="red">
 		<route edges="1_0 3_1"/>
	</vehicle>
	<vehicle id="109" depart="354" departLane="best" departSpeed="max" color="red">
 		<route edges="1_0 3_1"/>
	</vehicle>
	<vehicle id="110" depart="354" departLane="best" departSpeed="max" color="red">
 		<route edges="1_0 3_1"/>
	</vehicle>
	<vehicle id="111" depart="354" departLane="best" departSpeed="max" color="red">
 		<route edges="1_0 3_1"/>
	</vehicle>
	<vehicle id="112" depart="354" departLane="best" departSpeed="max" color="red">
 		<route edges="1_0 3_1"/>
	</vehicle>
	<vehicle id="113" depart="354" departLane="best" departSpeed="max" color="red">
 		<route edges="1_0 3_1"/>
	</vehicle>
	<vehicle id="114" depart="354" departLane="best" departSpeed="max" color="red">
 		<route edges="1_0 3_1"/>
	</vehicle>
	<vehicle id="115" depart="354" departLane="best" departSpeed="max" color="red">
 		<route edges="1_0 3_1"/>
	</vehicle>
	<vehicle id="116" depart="374" departLane="best" departSpeed="max" color="red">
 		<route edges="1_0 2_1"/>
	</vehicle>
	<vehicle id="117" depart="374" departLane="best" departSpeed="max" color="red">
 		<route edges="1_0 2_1"/>
	</vehicle>
	<vehicle id="118" depart="374" departLane="best" departSpeed="max" color="red">
 		<route edges="1_0 2_1"/>
	</vehicle>
	<vehicle id="119" depart="374" departLane="best" departSpeed="max" color="red">
 		<route edges="1_0 2_1"/>
	</vehicle>
	<vehicle id="120" depart="377" departLane="best" departSpeed="max" color="red">
 		<route edges="2_0 3_1"/>
	</vehicle>
	<vehicle id="121" depart="377" departLane="best" departSpeed="max" color="red">
 		<route edges="2_0 3_1"/>
	</vehicle>
	<vehicle id="122" depart="377" departLane="best" departSpeed="max" color="red">
 		<route edges="2_0 3_1"/>
	</vehicle>
	<vehicle id="123" depart="377" departLane="best" departSpeed="max" color="red">
 		<route edges="2_0 3_1"/>
	</vehicle>
	<vehicle id="124" depart="377" departLane="best" departSpeed="max" color="red">
 		<route edges="2_0 3_1"/>
	</vehicle>
	<vehicle id="125" depart="377" departLane="best" departSpeed="max" color="red">
 		<route edges="2_0 3_1"/>
	</vehicle>
	<vehicle id="126" depart="377" departLane="best" departSpeed="max" color="red">
 		<route edges="2_0 3_1"/>
	</vehicle>
	<vehicle id="127" depart="377" departLane="best" departSpeed="max" color="red">
 		<route edges="2_0 3_1"/>
	</vehicle>
	<vehicle id="128" depart="601" departLane="best" departSpeed="max" color="red">
 		<route edges="4_0 2_1"/>
	</vehicle>
	<vehicle id="129" depart="601" departLane="best" departSpeed="max" color="red">
 		<route edges="4_0 2_1"/>
	</vehicle>
	<vehicle id="130" depart="601" departLane="best" departSpeed="max" color="red">
 		<route edges="4_0 2_1"/>
	</vehicle>
	<vehicle id="131" depart="601" departLane="best" departSpeed="max" color="red">
 		<route edges="4_0 2_1"/>
	</vehicle>
	<vehicle id="132" depart="601" departLane="best" departSpeed="max" color="red">
 		<route edges="4_0 2_1"/>
	</vehicle>
	<vehicle id="133" depart="608" departLane="best" departSpeed="max" color="red">
 		<route edges="3_0 2_1"/>
	</vehicle>
	<vehicle id="134" depart="608" departLane="best" departSpeed="max" color="red">
 		<route edges="3_0 2_1"/>
	</vehicle>
	<vehicle id="135" depart="608" departLane="best" departSpeed="max" color="red">
 		<route edges="3_0 2_1"/>
	</vehicle>
	<vehicle id="136" depart="608" departLane="best" departSpeed="max" color="red">
 		<route edges="3_0 2_1"/>
	</vehicle>
	<vehicle id="137" depart="608" departLane="best" departSpeed="max" color="red">
 		<route edges="3_0 2_1"/>
	</vehicle>
	<vehicle id="138" depart="609" departLane="best" departSpeed="max" color="red">
 		<route edges="3_0 1_1"/>
	</vehicle>
	<vehicle id="139" depart="609" departLane="best" departSpeed="max" color="red">
 		<route edges="3_0 1_1"/>
	</vehicle>
	<vehicle id="140" depart="609" departLane="best" departSpeed="max" color="red">
 		<route edges="3_0 1_1"/>
	</vehicle>
	<vehicle id="141" depart="609" departLane="best" departSpeed="max" color="red">
 		<route edges="3_0 1_1"/>
	</vehicle>
	<vehicle id="142" depart="616" departLane="best" departSpeed="max" color="red">
 		<route edges="2_0 4_1"/>
	</vehicle>
	<vehicle id="143" depart="616" departLane="best" departSpeed="max" color="red">
 		<route edges="2_0 4_1"/>
	</vehicle>
	<vehicle id="144" depart="616" departLane="best" departSpeed="max" color="red">
 		<route edges="2_0 4_1"/>
	</vehicle>
	<vehicle id="145" depart="616" departLane="best" departSpeed="max" color="red">
 		<route edges="2_0 4_1"/>
	</vehicle>
	<vehicle id="146" depart="616" departLane="best" departSpeed="max" color="red">
 		<route edges="2_0 4_1"/>
	</vehicle>
	<vehicle id="147" depart="616" departLane="best" departSpeed="max" color="red">
 		<route edges="2_0 4_1"/>
	</vehicle>
	<vehicle id="148" depart="617" departLane="best" departSpeed="max" color="red">
 		<route edges="2_0 1_1"/>
	</vehicle>
	<vehicle id="149" depart="617" departLane="best" departSpeed="max" color="red">
 		<route edges="2_0 1_1"/>
	</vehicle>
	<vehicle id="150" depart="617" departLane="best" departSpeed="max" color="red">
 		<route edges="2_0 1_1"/>
	</vehicle>
	<vehicle id="151" depart="619" departLane="best" departSpeed="max" color="red">
 		<route edges="1_0 4_1"/>
	</vehicle>
	<vehicle id="152" depart="619" departLane="best" departSpeed="max" color="red">
 		<route edges="1_0 4_1"/>
	</vehicle>
	<vehicle id="153" depart="619" departLane="best" departSpeed="max" color="red">
 		<route edges="1_0 4_1"/>
	</vehicle>
	<vehicle id="154" depart="621" departLane="best" departSpeed="max" color="red">
 		<route edges="1_0 3_1"/>
	</vehicle>
	<vehicle id="155" depart="621" departLane="best" departSpeed="max" color="red">
 		<route edges="1_0 3_1"/>
	</vehicle>
	<vehicle id="156" depart="621" departLane="best" departSpeed="max" color="red">
 		<route edges="1_0 3_1"/>
	</vehicle>
	<vehicle id="157" depart="621" departLane="best" departSpeed="max" color="red">
 		<route edges="1_0 3_1"/>
	</vehicle>
	<vehicle id="158" depart="621" departLane="best" departSpeed="max" color="red">
 		<route edges="1_0 3_1"/>
	</vehicle>
	<vehicle id="159" depart="621" departLane="best" departSpeed="max" color="red">
 		<route edges="1_0 3_1"/>
	</vehicle>
	<vehicle id="160" depart="621" departLane="best" departSpeed="max" color="red">
 		<route edges="1_0 3_1"/>
	</vehicle>
	<vehicle id="161" depart="621" departLane="best" departSpeed="max" color="red">
 		<route edges="1_0 3_1"/>
	</vehicle>
	<vehicle id="162" depart="622" departLane="best" departSpeed="max" color="red">
 		<route edges="1_0 2_1"/>
	</vehicle>
	<vehicle id="163" depart="622" departLane="best" departSpeed="max" color="red">
 		<route edges="1_0 2_1"/>
	</vehicle>
	<vehicle id="164" depart="622" departLane="best" departSpeed="max" color="red">
 		<route edges="1_0 2_1"/>
	</vehicle>
	<vehicle id="165" depart="622" departLane="best" departSpeed="max" color="red">
 		<route edges="1_0 2_1"/>
	</vehicle>
	<vehicle id="166" depart="622" departLane="best" departSpeed="max" color="red">
 		<route edges="1_0 2_1"/>
	</vehicle>
	<vehicle id="167" depart="622" departLane="best" departSpeed="max" color="red">
 		<route edges="1_0 2_1"/>
	</vehicle>
	<vehicle id="168" depart="633" departLane="best" departSpeed="max" color="red">
 		<route edges="2_0 3_1"/>
	</vehicle>
	<vehicle id="169" depart="633" departLane="best" departSpeed="max" color="red">
 		<route edges="2_0 3_1"/>
	</vehicle>
	<vehicle id="170" depart="633" departLane="best" departSpeed="max" color="red">
 		<route edges="2_0 3_1"/>
	</vehicle>
	<vehicle id="171" depart="633" departLane="best" departSpeed="max" color="red">
 		<route edges="2_0 3_1"/>
	</vehicle>
	<vehicle id="172" depart="633" departLane="best" departSpeed="max" color="red">
 		<route edges="2_0 3_1"/>
	</vehicle>
	<vehicle id="173" depart="635" departLane="best" departSpeed="max" color="red">
 		<route edges="4_0 1_1"/>
	</vehicle>
	<vehicle id="174" depart="635" departLane="best" departSpeed="max" color="red">
 		<route edges="4_0 1_1"/>
	</vehicle>
	<vehicle id="175" depart="635" departLane="best" departSpeed="max" color="red">
 		<route edges="4_0 1_1"/>
	</vehicle>
	<vehicle id="176" depart="635" departLane="best" departSpeed="max" color="red">
 		<route edges="4_0 1_1"/>
	</vehicle>
	<vehicle id="177" depart="635" departLane="best" departSpeed="max" color="red">
 		<route edges="4_0 1_1"/>
	</vehicle>
	<vehicle id="178" depart="647" departLane="best" departSpeed="max" color="red">
 		<route edges="3_0 4_1"/>
	</vehicle>
	<vehicle id="179" depart="914" departLane="best" departSpeed="max" color="red">
 		<route edges="1_0"/>
	</vehicle>
	<vehicle id="180" depart="915" departLane="best" departSpeed="max" color="red">
 		<route edges="1_0 2_1"/>
	</vehicle>
	<vehicle id="181" depart="915" departLane="best" departSpeed="max" color="red">
 		<route edges="1_0 2_1"/>
	</vehicle>
	<vehicle id="182" depart="915" departLane="best" departSpeed="max" color="red">
 		<route edges="1_0 2_1"/>
	</vehicle>
	<vehicle id="183" depart="915" departLane="best" departSpeed="max" color="red">
 		<route edges="1_0 2_1"/>
	</vehicle>
	<vehicle id="184" depart="918" departLane="best" departSpeed="max" color="red">
 		<route edges="1_0 3_1"/>
	</vehicle>
	<vehicle id="185" depart="918" departLane="best" departSpeed="max" color="red">
 		<route edges="1_0 3_1"/>
	</vehicle>
	<vehicle id="186" depart="918" departLane="best" departSpeed="max" color="red">
 		<route edges="1_0 3_1"/>
	</vehicle>
	<vehicle id="187" depart="918" departLane="best" departSpeed="max" color="red">
 		<route edges="1_0 3_1"/>
	</vehicle>
	<vehicle id="188" depart="918" departLane="best" departSpeed="max" color="red">
 		<route edges="1_0 3_1"/>
	</vehicle>
	<vehicle id="189" depart="918" departLane="best" departSpeed="max" color="red">
 		<route edges="1_0 3_1"/>
	</vehicle>
	<vehicle id="190" depart="918" departLane="best" departSpeed="max" color="red">
 		<route edges="1_0 3_1"/>
	</vehicle>
	<vehicle id="191" depart="918" departLane="best" departSpeed="max" color="red">
 		<route edges="1_0 3_1"/>
	</vehicle>
	<vehicle id="192" depart="918" departLane="best" departSpeed="max" color="red">
 		<route edges="1_0 3_1"/>
	</vehicle>
	<vehicle id="193" depart="925" departLane="best" departSpeed="max" color="red">
 		<route edges="2_0 1_1"/>
	</vehicle>
	<vehicle id="194" depart="933" departLane="best" departSpeed="max" color="red">
 		<route edges="3_0 4_1"/>
	</vehicle>
	<vehicle id="195" depart="935" departLane="best" departSpeed="max" color="red">
 		<route edges="2_0 4_1"/>
	</vehicle>
	<vehicle id="196" depart="935" departLane="best" departSpeed="max" color="red">
 		<route edges="2_0 4_1"/>
	</vehicle>
	<vehicle id="197" depart="935" departLane="best" departSpeed="max" color="red">
 		<route edges="2_0 4_1"/>
	</vehicle>
	<vehicle id="198" depart="935" departLane="best" departSpeed="max" color="red">
 		<route edges="2_0 4_1"/>
	</vehicle>
	<vehicle id="199" depart="935" departLane="best" departSpeed="max" color="red">
 		<route edges="2_0 4_1"/>
	</vehicle>
	<vehicle id="200" depart="935" departLane="best" departSpeed="max" color="red">
 		<route edges="2_0 4_1"/>
	</vehicle>
	<vehicle id="201" depart="935" departLane="best" departSpeed="max" color="red">
 		<route edges="2_0 4_1"/>
	</vehicle>
	<vehicle id="202" depart="935" departLane="best" departSpeed="max" color="red">
 		<route edges="2_0 4_1"/>
	</vehicle>
	<vehicle id="203" depart="935" departLane="best" departSpeed="max" color="red">
 		<route edges="2_0 4_1"/>
	</vehicle>
	<vehicle id="204" depart="935" departLane="best" departSpeed="max" color="red">
 		<route edges="2_0 4_1"/>
	</vehicle>
	<vehicle id="205" depart="943" departLane="best" departSpeed="max" color="red">
 		<route edges="3_0 1_1"/>
	</vehicle>
	<vehicle id="206" depart="943" departLane="best" departSpeed="max" color="red">
 		<route edges="3_0 1_1"/>
	</vehicle>
	<vehicle id="207" depart="943" departLane="best" departSpeed="max" color="red">
 		<route edges="3_0 1_1"/>
	</vehicle>
	<vehicle id="208" depart="943" departLane="best" departSpeed="max" color="red">
 		<route edges="3_0 1_1"/>
	</vehicle>
	<vehicle id="209" depart="943" departLane="best" departSpeed="max" color="red">
 		<route edges="3_0 1_1"/>
	</vehicle>
	<vehicle id="210" depart="943" departLane="best" departSpeed="max" color="red">
 		<route edges="3_0 1_1"/>
	</vehicle>
	<vehicle id="211" depart="943" departLane="best" departSpeed="max" color="red">
 		<route edges="3_0 1_1"/>
	</vehicle>
	<vehicle id="212" depart="943" departLane="best" departSpeed="max" color="red">
 		<route edges="3_0 1_1"/>
	</vehicle>
	<vehicle id="213" depart="943" departLane="best" departSpeed="max" color="red">
 		<route edges="3_0 1_1"/>
	</vehicle>
	<vehicle id="214" depart="943" departLane="best" departSpeed="max" color="red">
 		<route edges="3_0 1_1"/>
	</vehicle>
	<vehicle id="215" depart="946" departLane="best" departSpeed="max" color="red">
 		<route edges="3_0 2_1"/>
	</vehicle>
	<vehicle id="216" depart="946" departLane="best" departSpeed="max" color="red">
 		<route edges="3_0 2_1"/>
	</vehicle>
	<vehicle id="217" depart="946" departLane="best" departSpeed="max" color="red">
 		<route edges="3_0 2_1"/>
	</vehicle>
	<vehicle id="218" depart="946" departLane="best" departSpeed="max" color="red">
 		<route edges="3_0 2_1"/>
	</vehicle>
	<vehicle id="219" depart="972" departLane="best" departSpeed="max" color="red">
 		<route edges="4_0 2_1"/>
	</vehicle>
	<vehicle id="220" depart="972" departLane="best" departSpeed="max" color="red">
 		<route edges="4_0 2_1"/>
	</vehicle>
	<vehicle id="221" depart="972" departLane="best" departSpeed="max" color="red">
 		<route edges="4_0 2_1"/>
	</vehicle>
	<vehicle id="222" depart="972" departLane="best" departSpeed="max" color="red">
 		<route edges="4_0 2_1"/>
	</vehicle>
	<vehicle id="223" depart="972" departLane="best" departSpeed="max" color="red">
 		<route edges="4_0 2_1"/>
	</vehicle>
	<vehicle id="224" depart="972" departLane="best" departSpeed="max" color="red">
 		<route edges="4_0 2_1"/>
	</vehicle>
	<vehicle id="225" depart="973" departLane="best" departSpeed="max" color="red">
 		<route edges="4_0 1_1"/>
	</vehicle>
	<vehicle id="226" depart="973" departLane="best" departSpeed="max" color="red">
 		<route edges="4_0 1_1"/>
	</vehicle>
	<vehicle id="227" depart="973" departLane="best" departSpeed="max" color="red">
 		<route edges="4_0 1_1"/>
	</vehicle>
	<vehicle id="228" depart="973" departLane="best" departSpeed="max" color="red">
 		<route edges="4_0 1_1"/>
	</vehicle>
	<vehicle id="229" depart="981" departLane="best" departSpeed="max" color="red">
 		<route edges="2_0 3_1"/>
	</vehicle>
	<vehicle id="230" depart="981" departLane="best" departSpeed="max" color="red">
 		<route edges="2_0 3_1"/>
	</vehicle>
	<vehicle id="231" depart="1213" departLane="best" departSpeed="max" color="red">
 		<route edges="3_0 2_1"/>
	</vehicle>
	<vehicle id="232" depart="1222" departLane="best" departSpeed="max" color="red">
 		<route edges="1_0 3_1"/>
	</vehicle>
	<vehicle id="233" depart="1222" departLane="best" departSpeed="max" color="red">
 		<route edges="1_0 3_1"/>
	</vehicle>
	<vehicle id="234" depart="1222" departLane="best" departSpeed="max" color="red">
 		<route edges="1_0 3_1"/>
	</vehicle>
	<vehicle id="235" depart="1222" departLane="best" departSpeed="max" color="red">
 		<route edges="1_0 3_1"/>
	</vehicle>
	<vehicle id="236" depart="1222" departLane="best" departSpeed="max" color="red">
 		<route edges="1_0 3_1"/>
	</vehicle>
	<vehicle id="237" depart="1226" departLane="best" departSpeed="max" color="red">
 		<route edges="1_0 2_1"/>
	</vehicle>
	<vehicle id="238" depart="1226" departLane="best" departSpeed="max" color="red">
 		<route edges="1_0 2_1"/>
	</vehicle>
	<vehicle id="239" depart="1226" departLane="best" departSpeed="max" color="red">
 		<route edges="1_0 2_1"/>
	</vehicle>
	<vehicle id="240" depart="1226" departLane="best" departSpeed="max" color="red">
 		<route edges="1_0 2_1"/>
	</vehicle>
	<vehicle id="241" depart="1226" departLane="best" departSpeed="max" color="red">
 		<route edges="1_0 2_1"/>
	</vehicle>
	<vehicle id="242" depart="1226" departLane="best" departSpeed="max" color="red">
 		<route edges="1_0 2_1"/>
	</vehicle>
	<vehicle id="243" depart="1226" departLane="best" departSpeed="max" color="red">
 		<route edges="1_0 2_1"/>
	</vehicle>
	<vehicle id="244" depart="1226" departLane="best" departSpeed="max" color="red">
 		<route edges="1_0 2_1"/>
	</vehicle>
	<vehicle id="245" depart="1226" departLane="best" departSpeed="max" color="red">
 		<route edges="1_0 2_1"/>
	</vehicle>
	<vehicle id="246" depart="1226" departLane="best" departSpeed="max" color="red">
 		<route edges="1_0 2_1"/>
	</vehicle>
	<vehicle id="247" depart="1241" departLane="best" departSpeed="max" color="red">