<?xml version="1.0" encoding="UTF-8"?>

<!-- generated on 2022-06-21 09:07:08 by Eclipse SUMO netedit Version 1.12.0
<configuration xmlns:xsi="http://www.w3.org/2001/XMLSchema-instance" xsi:noNamespaceSchemaLocation="http://sumo.dlr.de/xsd/netconvertConfiguration.xsd">

    <input>
        <sumo-net-file value="C:\Users\Havva%20Nur%20Ezginci\Desktop\Sumo\MosasCalismalar\Mosas_Verisi_ile_QL_uygulamasi\mosas_kilis.net.xml"/>
    </input>

    <output>
        <output-file value="C:\Users\Havva%20Nur%20Ezginci\Desktop\Sumo\MosasCalismalar\Mosas_Verisi_ile_QL_uygulamasi\mosas_kilis.net.xml"/>
    </output>

    <processing>
        <geometry.min-radius.fix.railways value="false"/>
        <geometry.max-grade.fix value="false"/>
        <offset.disable-normalization value="true"/>
        <lefthand value="false"/>
    </processing>

    <junctions>
        <no-turnarounds value="true"/>
        <junctions.corner-detail value="5"/>
        <junctions.limit-turn-speed value="5.5"/>
        <rectangular-lane-cut value="false"/>
    </junctions>

    <pedestrian>
        <walkingareas value="false"/>
    </pedestrian>

    <report>
        <aggregate-warnings value="5"/>
    </report>

</configuration>
-->

<net version="1.9" junctionCornerDetail="5" limitTurnSpeed="5.50" xmlns:xsi="http://www.w3.org/2001/XMLSchema-instance" xsi:noNamespaceSchemaLocation="http://sumo.dlr.de/xsd/net_file.xsd">

    <location netOffset="0.00,0.00" convBoundary="-56.35,-53.11,157.69,155.52" origBoundary="-10000000000.00,-10000000000.00,10000000000.00,10000000000.00" projParameter="!"/>

    <edge id=":J0_0" function="internal">
        <lane id=":J0_0_0" index="0" speed="6.48" length="9.13" shape="53.59,56.84 51.12,56.66 49.19,57.34 47.81,58.88 46.98,61.27"/>
    </edge>
    <edge id=":J0_1" function="internal">
        <lane id=":J0_1_0" index="0" speed="13.89" length="14.54" shape="53.59,56.84 50.00,56.08 46.47,55.42 42.92,54.84 39.28,54.32"/>
    </edge>
    <edge id=":J0_2" function="internal">
        <lane id=":J0_2_0" index="0" speed="8.04" length="3.92" shape="53.59,56.84 49.92,55.46"/>
    </edge>
    <edge id=":J0_12" function="internal">
        <lane id=":J0_12_0" index="0" speed="8.04" length="10.33" shape="49.92,55.46 47.56,53.26 46.51,50.22 46.77,46.35"/>
    </edge>
    <edge id=":J0_3" function="internal">
        <lane id=":J0_3_0" index="0" speed="6.55" length="9.12" shape="49.90,47.02 49.73,49.49 50.41,51.42 51.93,52.83 54.29,53.72"/>
    </edge>
    <edge id=":J0_4" function="internal">
        <lane id=":J0_4_0" index="0" speed="13.89" length="14.55" shape="49.90,47.02 46.98,61.27"/>
    </edge>
    <edge id=":J0_5" function="internal">
        <lane id=":J0_5_0" index="0" speed="8.31" length="3.98" shape="49.90,47.02 48.55,50.65 48.48,50.73"/>
    </edge>
    <edge id=":J0_13" function="internal">
        <lane id=":J0_13_0" index="0" speed="8.31" length="10.46" shape="48.48,50.73 46.34,53.07 43.25,54.30 39.28,54.32"/>
    </edge>
    <edge id=":J0_6" function="internal">
        <lane id=":J0_6_0" index="0" speed="6.87" length="9.58" shape="39.70,51.15 42.34,51.14 44.40,50.33 45.88,48.74 46.77,46.35"/>
    </edge>
    <edge id=":J0_7" function="internal">
        <lane id=":J0_7_0" index="0" speed="13.89" length="14.82" shape="39.70,51.15 43.38,51.67 47.02,52.27 50.65,52.95 54.29,53.72"/>
    </edge>
    <edge id=":J0_8" function="internal">
        <lane id=":J0_8_0" index="0" speed="7.89" length="4.21" shape="39.70,51.15 43.54,52.23 43.71,52.36"/>
    </edge>
    <edge id=":J0_14" function="internal">
        <lane id=":J0_14_0" index="0" speed="7.89" length="10.23" shape="43.71,52.36 46.03,54.27 47.18,57.29 46.98,61.27"/>
    </edge>
    <edge id=":J0_9" function="internal">
        <lane id=":J0_9_0" index="0" speed="6.38" length="9.04" shape="43.84,60.66 43.97,58.17 43.25,56.28 41.69,55.00 39.28,54.32"/>
    </edge>
    <edge id=":J0_10" function="internal">
        <lane id=":J0_10_0" index="0" speed="13.89" length="14.61" shape="43.84,60.66 46.77,46.35"/>
    </edge>
    <edge id=":J0_11" function="internal">
        <lane id=":J0_11_0" index="0" speed="7.98" length="4.21" shape="43.84,60.66 45.14,56.90 45.30,56.73"/>
    </edge>
    <edge id=":J0_15" function="internal">
        <lane id=":J0_15_0" index="0" speed="7.98" length="10.18" shape="45.30,56.73 47.32,54.49 50.37,53.43 54.29,53.72"/>
    </edge>

    <edge id="1_0" from="J1" to="J0" priority="-1">
        <lane id="1_0_0" index="0" speed="13.89" length="102.05" shape="71.23,-52.78 49.90,47.02"/>
    </edge>
    <edge id="1_1" from="J0" to="J1" priority="-1">
        <lane id="1_1_0" index="0" speed="13.89" length="102.05" shape="46.77,46.35 68.11,-53.44"/>
    </edge>
    <edge id="2_0" from="J2" to="J0" priority="-1">
        <lane id="2_0_0" index="0" speed="13.89" length="106.28" shape="157.34,79.87 53.59,56.84"/>
    </edge>
    <edge id="2_1" from="J0" to="J2" priority="-1">
        <lane id="2_1_0" index="0" speed="13.89" length="106.28" shape="54.29,53.72 158.04,76.75"/>
    </edge>
    <edge id="3_0" from="J3" to="J0" priority="-1">
        <lane id="3_0_0" index="0" speed="13.89" length="96.33" shape="25.40,155.21 43.84,60.66"/>
    </edge>
    <edge id="3_1" from="J0" to="J3" priority="-1">
        <lane id="3_1_0" index="0" speed="13.89" length="96.33" shape="46.98,61.27 28.54,155.83"/>
    </edge>
    <edge id="4_0" from="J4" to="J0" priority="-1">
        <lane id="4_0_0" index="0" speed="13.89" length="96.66" shape="-56.14,38.54 39.70,51.15"/>
    </edge>
    <edge id="4_1" from="J0" to="J4" priority="-1">
        <lane id="4_1_0" index="0" speed="13.89" length="96.66" shape="39.28,54.32 -56.56,41.72"/>
    </edge>

    <tlLogic id="J0" type="static" programID="1" offset="0">
        <phase duration="42" state="rrrGGgrrrGGg"/>
        <phase duration="3"  state="rrryyyrrryyy"/>
        <phase duration="42" state="GGgrrrGGgrrr"/>
        <phase duration="3"  state="yyyrrryyyrrr"/>
    </tlLogic>

    <junction id="J0" type="traffic_light" x="46.83" y="53.70" incLanes="2_0_0 1_0_0 4_0_0 3_0_0" intLanes=":J0_0_0 :J0_1_0 :J0_12_0 :J0_3_0 :J0_4_0 :J0_13_0 :J0_6_0 :J0_7_0 :J0_14_0 :J0_9_0 :J0_10_0 :J0_15_0" shape="53.25,58.40 54.63,52.15 52.50,51.23 51.84,50.51 51.44,49.62 51.32,48.57 51.46,47.35 45.20,46.01 44.22,48.24 43.44,48.97 42.46,49.43 41.28,49.62 39.91,49.56 39.07,55.91 41.19,56.63 41.85,57.28 42.26,58.12 42.40,59.14 42.27,60.35 48.55,61.58 49.43,59.43 50.12,58.76 50.99,58.37 52.03,58.25">
        <request index="0"  response="000000010000" foes="000100010000" cont="0"/>
        <request index="1"  response="111000110000" foes="111100110000" cont="0"/>
        <request index="2"  response="110111110000" foes="110111110000" cont="1"/>
        <request index="3"  response="000000000000" foes="100010000000" cont="0"/>
        <request index="4"  response="000100000100" foes="100110000111" cont="0"/>
        <request index="5"  response="111100000100" foes="111110000110" cont="1"/>
        <request index="6"  response="010000000000" foes="010000000100" cont="0"/>
        <request index="7"  response="110000111000" foes="110000111100" cont="0"/>
        <request index="8"  response="110000110011" foes="110000110111" cont="1"/>
        <request index="9"  response="000000000000" foes="000000100010" cont="0"/>
        <request index="10" response="000100000100" foes="000111100110" cont="0"/>
        <request index="11" response="000100011100" foes="000110111110" cont="1"/>
    </junction>
    <junction id="J1" type="dead_end" x="69.67" y="-53.11" incLanes="1_1_0" intLanes="" shape="69.67,-53.11 66.54,-53.78 69.67,-53.11"/>
    <junction id="J2" type="dead_end" x="157.69" y="78.31" incLanes="2_1_0" intLanes="" shape="157.69,78.31 158.38,75.19 157.69,78.31"/>
    <junction id="J3" type="dead_end" x="26.97" y="155.52" incLanes="3_1_0" intLanes="" shape="26.97,155.52 30.11,156.13 26.97,155.52"/>
    <junction id="J4" type="dead_end" x="-56.35" y="40.13" incLanes="4_1_0" intLanes="" shape="-56.35,40.13 -56.77,43.30 -56.35,40.13"/>

    <junction id=":J0_12_0" type="internal" x="49.92" y="55.46" incLanes=":J0_2_0 4_0_0" intLanes=":J0_4_0 :J0_5_0 :J0_6_0 :J0_7_0 :J0_10_0 :J0_11_0"/>
    <junction id=":J0_13_0" type="internal" x="48.48" y="50.73" incLanes=":J0_5_0 3_0_0" intLanes=":J0_1_0 :J0_2_0 :J0_7_0 :J0_8_0 :J0_9_0 :J0_10_0"/>
    <junction id=":J0_14_0" type="internal" x="43.71" y="52.36" incLanes=":J0_8_0 2_0_0" intLanes=":J0_0_0 :J0_1_0 :J0_4_0 :J0_5_0 :J0_10_0 :J0_11_0"/>
    <junction id=":J0_15_0" type="internal" x="45.30" y="56.73" incLanes=":J0_11_0 1_0_0" intLanes=":J0_1_0 :J0_2_0 :J0_3_0 :J0_4_0 :J0_7_0 :J0_8_0"/>

    <connection from="1_0" to="2_1" fromLane="0" toLane="0" via=":J0_3_0" tl="J0" linkIndex="3" dir="r" state="O"/>
    <connection from="1_0" to="3_1" fromLane="0" toLane="0" via=":J0_4_0" tl="J0" linkIndex="4" dir="s" state="O"/>
    <connection from="1_0" to="4_1" fromLane="0" toLane="0" via=":J0_5_0" tl="J0" linkIndex="5" dir="l" state="o"/>
    <connection from="2_0" to="3_1" fromLane="0" toLane="0" via=":J0_0_0" tl="J0" linkIndex="0" dir="r" state="o"/>
    <connection from="2_0" to="4_1" fromLane="0" toLane="0" via=":J0_1_0" tl="J0" linkIndex="1" dir="s" state="o"/>
    <connection from="2_0" to="1_1" fromLane="0" toLane="0" via=":J0_2_0" tl="J0" linkIndex="2" dir="l" state="o"/>
    <connection from="3_0" to="4_1" fromLane="0" toLane="0" via=":J0_9_0" tl="J0" linkIndex="9" dir="r" state="O"/>
    <connection from="3_0" to="1_1" fromLane="0" toLane="0" via=":J0_10_0" tl="J0" linkIndex="10" dir="s" state="O"/>
    <connection from="3_0" to="2_1" fromLane="0" toLane="0" via=":J0_11_0" tl="J0" linkIndex="11" dir="l" state="o"/>
    <connection from="4_0" to="1_1" fromLane="0" toLane="0" via=":J0_6_0" tl="J0" linkIndex="6" dir="r" state="o"/>
    <connection from="4_0" to="2_1" fromLane="0" toLane="0" via=":J0_7_0" tl="J0" linkIndex="7" dir="s" state="o"/>
    <connection from="4_0" to="3_1" fromLane="0" toLane="0" via=":J0_8_0" tl="J0" linkIndex="8" dir="l" state="o"/>

    <connection from=":J0_0" to="3_1" fromLane="0" toLane="0" dir="r" state="M"/>
    <connection from=":J0_1" to="4_1" fromLane="0" toLane="0" dir="s" state="M"/>
    <connection from=":J0_2" to="1_1" fromLane="0" toLane="0" via=":J0_12_0" dir="l" state="m"/>
    <connection from=":J0_12" to="1_1" fromLane="0" toLane="0" dir="l" state="M"/>
    <connection from=":J0_3" to="2_1" fromLane="0" toLane="0" dir="r" state="M"/>
    <connection from=":J0_4" to="3_1" fromLane="0" toLane="0" dir="s" state="M"/>
    <connection from=":J0_5" to="4_1" fromLane="0" toLane="0" via=":J0_13_0" dir="l" state="m"/>
    <connection from=":J0_13" to="4_1" fromLane="0" toLane="0" dir="l" state="M"/>
    <connection from=":J0_6" to="1_1" fromLane="0" toLane="0" dir="r" state="M"/>
    <connection from=":J0_7" to="2_1" fromLane="0" toLane="0" dir="s" state="M"/>
    <connection from=":J0_8" to="3_1" fromLane="0" toLane="0" via=":J0_14_0" dir="l" state="m"/>
    <connection from=":J0_14" to="3_1" fromLane="0" toLane="0" dir="l" state="M"/>
    <connection from=":J0_9" to="4_1" fromLane="0" toLane="0" dir="r" state="M"/>
    <connection from=":J0_10" to="1_1" fromLane="0" toLane="0" dir="s" state="M"/>
    <connection from=":J0_11" to="2_1" fromLane="0" toLane="0" via=":J0_15_0" dir="l" state="m"/>
    <connection from=":J0_15" to="2_1" fromLane="0" toLane="0" dir="l" state="M"/>

</net>
